<?xml version="1.0" encoding="UTF-8"?>

<!-- generated on 2022-04-11 15:11:32 by Eclipse SUMO netedit Version 1.10.0
<configuration xmlns:xsi="http://www.w3.org/2001/XMLSchema-instance" xsi:noNamespaceSchemaLocation="http://sumo.dlr.de/xsd/netconvertConfiguration.xsd">

    <output>
        <output-file value="C:\Users\William\Documents\GitHub\fyp\simulations\veins_inet\grid.net.xml"/>
    </output>

    <processing>
        <offset.disable-normalization value="true"/>
    </processing>

    <junctions>
        <no-turnarounds value="true"/>
    </junctions>

    <netedit>
        <route-files value="C:\Users\William\Documents\GitHub\fyp\simulations\veins_inet\grid.rou.xml"/>
    </netedit>

    <report>
        <aggregate-warnings value="5"/>
    </report>

</configuration>
-->

<routes xmlns:xsi="http://www.w3.org/2001/XMLSchema-instance" xsi:noNamespaceSchemaLocation="http://sumo.dlr.de/xsd/routes_file.xsd">
    <trip id="vehicle_0" depart="0.00" from="gneE0" to="-gneE3" via="gneE7 gneE8 gneE10 gneE12 gneE5 gneE6"/>
    <trip id="vehicle_1" depart="0.00" from="gneE0" to="gneE4" via="gneE1 -gneE1"/>
    <trip id="vehicle_2" depart="0.00" from="gneE12" to="-gneE2" via="-gneE4 -gneE3 gneE7"/>
    <trip id="vehicle_3" depart="0.00" from="-gneE1" to="-gneE4" via="gneE10 gneE5 -gneE7 -gneE3"/>
    <trip id="vehicle_4" depart="0.00" from="-gneE2" to="gneE4" via="gneE1 -gneE4 -gneE1"/>
</routes>
