<?xml version="1.0" encoding="UTF-8"?>

<!-- generated on 2022-04-14 23:47:46 by Eclipse SUMO netedit Version 1.10.0
<configuration xmlns:xsi="http://www.w3.org/2001/XMLSchema-instance" xsi:noNamespaceSchemaLocation="http://sumo.dlr.de/xsd/netconvertConfiguration.xsd">

    <input>
        <sumo-net-file value="C:\Users\William\Documents\GitHub\fyp\simulations\veins_inet\grid.net.xml"/>
    </input>

    <output>
        <output-file value="C:\Users\William\Documents\GitHub\fyp\simulations\veins_inet\grid.net.xml"/>
    </output>

    <processing>
        <geometry.min-radius.fix.railways value="false"/>
        <geometry.max-grade.fix value="false"/>
        <offset.disable-normalization value="true"/>
        <lefthand value="false"/>
    </processing>

    <junctions>
        <no-turnarounds value="true"/>
        <junctions.corner-detail value="5"/>
        <junctions.limit-turn-speed value="5.5"/>
        <rectangular-lane-cut value="false"/>
    </junctions>

    <pedestrian>
        <walkingareas value="false"/>
    </pedestrian>

    <report>
        <aggregate-warnings value="5"/>
    </report>

</configuration>
-->

<net version="1.9" junctionCornerDetail="5" limitTurnSpeed="5.50" xmlns:xsi="http://www.w3.org/2001/XMLSchema-instance" xsi:noNamespaceSchemaLocation="http://sumo.dlr.de/xsd/net_file.xsd">

    <location netOffset="0.00,0.00" convBoundary="0.00,0.00,200.00,200.00" origBoundary="-10000000000.00,-10000000000.00,10000000000.00,10000000000.00" projParameter="!"/>

    <edge id=":gneJ0_0" function="internal">
        <lane id=":gneJ0_0_0" index="0" speed="6.08" length="7.74" shape="-1.60,3.20 -1.30,1.10 -0.40,-0.40 1.10,-1.30 3.20,-1.60"/>
    </edge>
    <edge id=":gneJ0_1" function="internal">
        <lane id=":gneJ0_1_0" index="0" speed="3.90" length="2.58" shape="3.20,1.60 2.50,1.70 2.00,2.00 1.70,2.50 1.60,3.20"/>
    </edge>
    <edge id=":gneJ1_0" function="internal">
        <lane id=":gneJ1_0_0" index="0" speed="13.89" length="14.40" shape="-1.60,107.20 -1.60,92.80"/>
    </edge>
    <edge id=":gneJ1_1" function="internal">
        <lane id=":gneJ1_1_0" index="0" speed="8.00" length="5.93" shape="-1.60,107.20 -1.05,103.35 0.00,101.60"/>
    </edge>
    <edge id=":gneJ1_6" function="internal">
        <lane id=":gneJ1_6_0" index="0" speed="8.00" length="8.26" shape="0.00,101.60 0.60,100.60 3.35,98.95 7.20,98.40"/>
    </edge>
    <edge id=":gneJ1_2" function="internal">
        <lane id=":gneJ1_2_0" index="0" speed="6.51" length="9.03" shape="7.20,101.60 4.75,101.95 3.00,103.00 1.95,104.75 1.60,107.20"/>
    </edge>
    <edge id=":gneJ1_3" function="internal">
        <lane id=":gneJ1_3_0" index="0" speed="8.00" length="14.19" shape="7.20,101.60 3.35,101.05 0.60,99.40 -1.05,96.65 -1.60,92.80"/>
    </edge>
    <edge id=":gneJ1_4" function="internal">
        <lane id=":gneJ1_4_0" index="0" speed="6.51" length="9.03" shape="1.60,92.80 1.95,95.25 3.00,97.00 4.75,98.05 7.20,98.40"/>
    </edge>
    <edge id=":gneJ1_5" function="internal">
        <lane id=":gneJ1_5_0" index="0" speed="13.89" length="14.40" shape="1.60,92.80 1.60,107.20"/>
    </edge>
    <edge id=":gneJ2_0" function="internal">
        <lane id=":gneJ2_0_0" index="0" speed="6.51" length="9.03" shape="98.40,107.20 98.05,104.75 97.00,103.00 95.25,101.95 92.80,101.60"/>
    </edge>
    <edge id=":gneJ2_1" function="internal">
        <lane id=":gneJ2_1_0" index="0" speed="13.89" length="14.40" shape="98.40,107.20 98.40,92.80"/>
    </edge>
    <edge id=":gneJ2_2" function="internal">
        <lane id=":gneJ2_2_0" index="0" speed="8.00" length="5.93" shape="98.40,107.20 98.95,103.35 100.00,101.60"/>
    </edge>
    <edge id=":gneJ2_12" function="internal">
        <lane id=":gneJ2_12_0" index="0" speed="8.00" length="8.26" shape="100.00,101.60 100.60,100.60 103.35,98.95 107.20,98.40"/>
    </edge>
    <edge id=":gneJ2_3" function="internal">
        <lane id=":gneJ2_3_0" index="0" speed="6.51" length="9.03" shape="107.20,101.60 104.75,101.95 103.00,103.00 101.95,104.75 101.60,107.20"/>
    </edge>
    <edge id=":gneJ2_4" function="internal">
        <lane id=":gneJ2_4_0" index="0" speed="13.89" length="14.40" shape="107.20,101.60 92.80,101.60"/>
    </edge>
    <edge id=":gneJ2_5" function="internal">
        <lane id=":gneJ2_5_0" index="0" speed="8.00" length="14.19" shape="107.20,101.60 103.35,101.05 100.60,99.40 98.95,96.65 98.40,92.80"/>
    </edge>
    <edge id=":gneJ2_6" function="internal">
        <lane id=":gneJ2_6_0" index="0" speed="6.51" length="9.03" shape="101.60,92.80 101.95,95.25 103.00,97.00 104.75,98.05 107.20,98.40"/>
    </edge>
    <edge id=":gneJ2_7" function="internal">
        <lane id=":gneJ2_7_0" index="0" speed="13.89" length="14.40" shape="101.60,92.80 101.60,107.20"/>
    </edge>
    <edge id=":gneJ2_8" function="internal">
        <lane id=":gneJ2_8_0" index="0" speed="8.00" length="5.93" shape="101.60,92.80 101.05,96.65 100.00,98.40"/>
    </edge>
    <edge id=":gneJ2_13" function="internal">
        <lane id=":gneJ2_13_0" index="0" speed="8.00" length="8.26" shape="100.00,98.40 99.40,99.40 96.65,101.05 92.80,101.60"/>
    </edge>
    <edge id=":gneJ2_9" function="internal">
        <lane id=":gneJ2_9_0" index="0" speed="6.51" length="9.03" shape="92.80,98.40 95.25,98.05 97.00,97.00 98.05,95.25 98.40,92.80"/>
    </edge>
    <edge id=":gneJ2_10" function="internal">
        <lane id=":gneJ2_10_0" index="0" speed="13.89" length="14.40" shape="92.80,98.40 107.20,98.40"/>
    </edge>
    <edge id=":gneJ2_11" function="internal">
        <lane id=":gneJ2_11_0" index="0" speed="8.00" length="14.19" shape="92.80,98.40 96.65,98.95 99.40,100.60 101.05,103.35 101.60,107.20"/>
    </edge>
    <edge id=":gneJ3_0" function="internal">
        <lane id=":gneJ3_0_0" index="0" speed="6.51" length="9.03" shape="98.40,7.20 98.05,4.75 97.00,3.00 95.25,1.95 92.80,1.60"/>
    </edge>
    <edge id=":gneJ3_1" function="internal">
        <lane id=":gneJ3_1_0" index="0" speed="8.00" length="14.19" shape="98.40,7.20 98.95,3.35 100.60,0.60 103.35,-1.05 107.20,-1.60"/>
    </edge>
    <edge id=":gneJ3_2" function="internal">
        <lane id=":gneJ3_2_0" index="0" speed="6.51" length="9.03" shape="107.20,1.60 104.75,1.95 103.00,3.00 101.95,4.75 101.60,7.20"/>
    </edge>
    <edge id=":gneJ3_3" function="internal">
        <lane id=":gneJ3_3_0" index="0" speed="13.89" length="14.40" shape="107.20,1.60 92.80,1.60"/>
    </edge>
    <edge id=":gneJ3_4" function="internal">
        <lane id=":gneJ3_4_0" index="0" speed="13.89" length="14.40" shape="92.80,-1.60 107.20,-1.60"/>
    </edge>
    <edge id=":gneJ3_5" function="internal">
        <lane id=":gneJ3_5_0" index="0" speed="8.00" length="5.93" shape="92.80,-1.60 96.65,-1.05 98.40,0.00"/>
    </edge>
    <edge id=":gneJ3_6" function="internal">
        <lane id=":gneJ3_6_0" index="0" speed="8.00" length="8.26" shape="98.40,0.00 99.40,0.60 101.05,3.35 101.60,7.20"/>
    </edge>
    <edge id=":gneJ4_0" function="internal">
        <lane id=":gneJ4_0_0" index="0" speed="6.51" length="9.03" shape="198.40,107.20 198.05,104.75 197.00,103.00 195.25,101.95 192.80,101.60"/>
    </edge>
    <edge id=":gneJ4_1" function="internal">
        <lane id=":gneJ4_1_0" index="0" speed="13.89" length="14.40" shape="198.40,107.20 198.40,92.80"/>
    </edge>
    <edge id=":gneJ4_2" function="internal">
        <lane id=":gneJ4_2_0" index="0" speed="13.89" length="14.40" shape="201.60,92.80 201.60,107.20"/>
    </edge>
    <edge id=":gneJ4_3" function="internal">
        <lane id=":gneJ4_3_0" index="0" speed="8.00" length="5.93" shape="201.60,92.80 201.05,96.65 200.00,98.40"/>
    </edge>
    <edge id=":gneJ4_6" function="internal">
        <lane id=":gneJ4_6_0" index="0" speed="8.00" length="8.26" shape="200.00,98.40 199.40,99.40 196.65,101.05 192.80,101.60"/>
    </edge>
    <edge id=":gneJ4_4" function="internal">
        <lane id=":gneJ4_4_0" index="0" speed="6.51" length="9.03" shape="192.80,98.40 195.25,98.05 197.00,97.00 198.05,95.25 198.40,92.80"/>
    </edge>
    <edge id=":gneJ4_5" function="internal">
        <lane id=":gneJ4_5_0" index="0" speed="8.00" length="14.19" shape="192.80,98.40 196.65,98.95 199.40,100.60 201.05,103.35 201.60,107.20"/>
    </edge>
    <edge id=":gneJ5_0" function="internal">
        <lane id=":gneJ5_0_0" index="0" speed="3.90" length="2.58" shape="198.40,3.20 198.30,2.50 198.00,2.00 197.50,1.70 196.80,1.60"/>
    </edge>
    <edge id=":gneJ5_1" function="internal">
        <lane id=":gneJ5_1_0" index="0" speed="6.08" length="7.74" shape="196.80,-1.60 198.90,-1.30 200.40,-0.40 201.30,1.10 201.60,3.20"/>
    </edge>
    <edge id=":gneJ6_0" function="internal">
        <lane id=":gneJ6_0_0" index="0" speed="6.08" length="7.74" shape="3.20,201.60 1.10,201.30 -0.40,200.40 -1.30,198.90 -1.60,196.80"/>
    </edge>
    <edge id=":gneJ6_1" function="internal">
        <lane id=":gneJ6_1_0" index="0" speed="3.90" length="2.58" shape="1.60,196.80 1.70,197.50 2.00,198.00 2.50,198.30 3.20,198.40"/>
    </edge>
    <edge id=":gneJ7_0" function="internal">
        <lane id=":gneJ7_0_0" index="0" speed="13.89" length="14.40" shape="107.20,201.60 92.80,201.60"/>
    </edge>
    <edge id=":gneJ7_1" function="internal">
        <lane id=":gneJ7_1_0" index="0" speed="8.00" length="5.93" shape="107.20,201.60 103.35,201.05 101.60,200.00"/>
    </edge>
    <edge id=":gneJ7_6" function="internal">
        <lane id=":gneJ7_6_0" index="0" speed="8.00" length="8.26" shape="101.60,200.00 100.60,199.40 98.95,196.65 98.40,192.80"/>
    </edge>
    <edge id=":gneJ7_2" function="internal">
        <lane id=":gneJ7_2_0" index="0" speed="6.51" length="9.03" shape="101.60,192.80 101.95,195.25 103.00,197.00 104.75,198.05 107.20,198.40"/>
    </edge>
    <edge id=":gneJ7_3" function="internal">
        <lane id=":gneJ7_3_0" index="0" speed="8.00" length="14.19" shape="101.60,192.80 101.05,196.65 99.40,199.40 96.65,201.05 92.80,201.60"/>
    </edge>
    <edge id=":gneJ7_4" function="internal">
        <lane id=":gneJ7_4_0" index="0" speed="6.51" length="9.03" shape="92.80,198.40 95.25,198.05 97.00,197.00 98.05,195.25 98.40,192.80"/>
    </edge>
    <edge id=":gneJ7_5" function="internal">
        <lane id=":gneJ7_5_0" index="0" speed="13.89" length="14.40" shape="92.80,198.40 107.20,198.40"/>
    </edge>
    <edge id=":gneJ8_0" function="internal">
        <lane id=":gneJ8_0_0" index="0" speed="6.08" length="7.74" shape="201.60,196.80 201.30,198.90 200.40,200.40 198.90,201.30 196.80,201.60"/>
    </edge>
    <edge id=":gneJ8_1" function="internal">
        <lane id=":gneJ8_1_0" index="0" speed="3.90" length="2.58" shape="196.80,198.40 197.50,198.30 198.00,198.00 198.30,197.50 198.40,196.80"/>
    </edge>

    <edge id="-gneE0" from="gneJ1" to="gneJ0" priority="-1">
        <lane id="-gneE0_0" index="0" speed="13.89" length="89.60" shape="-1.60,92.80 -1.60,3.20"/>
    </edge>
    <edge id="-gneE1" from="gneJ1" to="gneJ2" priority="-1">
        <lane id="-gneE1_0" index="0" speed="13.89" length="85.60" shape="7.20,98.40 92.80,98.40"/>
    </edge>
    <edge id="-gneE10" from="gneJ8" to="gneJ7" priority="-1">
        <lane id="-gneE10_0" index="0" speed="13.89" length="89.60" shape="196.80,201.60 107.20,201.60"/>
    </edge>
    <edge id="-gneE12" from="gneJ4" to="gneJ8" priority="-1">
        <lane id="-gneE12_0" index="0" speed="13.89" length="89.60" shape="201.60,107.20 201.60,196.80"/>
    </edge>
    <edge id="-gneE2" from="gneJ3" to="gneJ2" priority="-1">
        <lane id="-gneE2_0" index="0" speed="13.89" length="85.60" shape="101.60,7.20 101.60,92.80"/>
    </edge>
    <edge id="-gneE3" from="gneJ3" to="gneJ0" priority="-1">
        <lane id="-gneE3_0" index="0" speed="13.89" length="89.60" shape="92.80,1.60 3.20,1.60"/>
    </edge>
    <edge id="-gneE4" from="gneJ4" to="gneJ2" priority="-1">
        <lane id="-gneE4_0" index="0" speed="13.89" length="85.60" shape="192.80,101.60 107.20,101.60"/>
    </edge>
    <edge id="-gneE5" from="gneJ5" to="gneJ4" priority="-1">
        <lane id="-gneE5_0" index="0" speed="13.89" length="89.60" shape="201.60,3.20 201.60,92.80"/>
    </edge>
    <edge id="-gneE6" from="gneJ3" to="gneJ5" priority="-1">
        <lane id="-gneE6_0" index="0" speed="13.89" length="89.60" shape="107.20,-1.60 196.80,-1.60"/>
    </edge>
    <edge id="-gneE7" from="gneJ6" to="gneJ1" priority="-1">
        <lane id="-gneE7_0" index="0" speed="13.89" length="89.60" shape="-1.60,196.80 -1.60,107.20"/>
    </edge>
    <edge id="-gneE8" from="gneJ7" to="gneJ6" priority="-1">
        <lane id="-gneE8_0" index="0" speed="13.89" length="89.60" shape="92.80,201.60 3.20,201.60"/>
    </edge>
    <edge id="-gneE9" from="gneJ2" to="gneJ7" priority="-1">
        <lane id="-gneE9_0" index="0" speed="13.89" length="85.60" shape="101.60,107.20 101.60,192.80"/>
    </edge>
    <edge id="gneE0" from="gneJ0" to="gneJ1" priority="-1">
        <lane id="gneE0_0" index="0" speed="13.89" length="89.60" shape="1.60,3.20 1.60,92.80"/>
    </edge>
    <edge id="gneE1" from="gneJ2" to="gneJ1" priority="-1">
        <lane id="gneE1_0" index="0" speed="13.89" length="85.60" shape="92.80,101.60 7.20,101.60"/>
    </edge>
    <edge id="gneE10" from="gneJ7" to="gneJ8" priority="-1">
        <lane id="gneE10_0" index="0" speed="13.89" length="89.60" shape="107.20,198.40 196.80,198.40"/>
    </edge>
    <edge id="gneE12" from="gneJ8" to="gneJ4" priority="-1">
        <lane id="gneE12_0" index="0" speed="13.89" length="89.60" shape="198.40,196.80 198.40,107.20"/>
    </edge>
    <edge id="gneE2" from="gneJ2" to="gneJ3" priority="-1">
        <lane id="gneE2_0" index="0" speed="13.89" length="85.60" shape="98.40,92.80 98.40,7.20"/>
    </edge>
    <edge id="gneE3" from="gneJ0" to="gneJ3" priority="-1">
        <lane id="gneE3_0" index="0" speed="13.89" length="89.60" shape="3.20,-1.60 92.80,-1.60"/>
    </edge>
    <edge id="gneE4" from="gneJ2" to="gneJ4" priority="-1">
        <lane id="gneE4_0" index="0" speed="13.89" length="85.60" shape="107.20,98.40 192.80,98.40"/>
    </edge>
    <edge id="gneE5" from="gneJ4" to="gneJ5" priority="-1">
        <lane id="gneE5_0" index="0" speed="13.89" length="89.60" shape="198.40,92.80 198.40,3.20"/>
    </edge>
    <edge id="gneE6" from="gneJ5" to="gneJ3" priority="-1">
        <lane id="gneE6_0" index="0" speed="13.89" length="89.60" shape="196.80,1.60 107.20,1.60"/>
    </edge>
    <edge id="gneE7" from="gneJ1" to="gneJ6" priority="-1">
        <lane id="gneE7_0" index="0" speed="13.89" length="89.60" shape="1.60,107.20 1.60,196.80"/>
    </edge>
    <edge id="gneE8" from="gneJ6" to="gneJ7" priority="-1">
        <lane id="gneE8_0" index="0" speed="13.89" length="89.60" shape="3.20,198.40 92.80,198.40"/>
    </edge>
    <edge id="gneE9" from="gneJ7" to="gneJ2" priority="-1">
        <lane id="gneE9_0" index="0" speed="13.89" length="85.60" shape="98.40,192.80 98.40,107.20"/>
    </edge>

    <junction id="gneJ0" type="priority" x="0.00" y="0.00" incLanes="-gneE0_0 -gneE3_0" intLanes=":gneJ0_0_0 :gneJ0_1_0" shape="-3.20,3.20 3.20,3.20 3.20,-3.20 -0.36,-2.49 -1.60,-1.60 -2.49,-0.36 -3.02,1.24">
        <request index="0" response="00" foes="00" cont="0"/>
        <request index="1" response="00" foes="00" cont="0"/>
    </junction>
    <junction id="gneJ1" type="priority" x="0.00" y="100.00" incLanes="-gneE7_0 gneE1_0 gneE0_0" intLanes=":gneJ1_0_0 :gneJ1_6_0 :gneJ1_2_0 :gneJ1_3_0 :gneJ1_4_0 :gneJ1_5_0" shape="-3.20,107.20 3.20,107.20 3.64,104.98 4.20,104.20 4.98,103.64 5.98,103.31 7.20,103.20 7.20,96.80 4.98,96.36 4.20,95.80 3.64,95.02 3.31,94.02 3.20,92.80 -3.20,92.80">
        <request index="0" response="000000" foes="001000" cont="0"/>
        <request index="1" response="110000" foes="111000" cont="1"/>
        <request index="2" response="100000" foes="100000" cont="0"/>
        <request index="3" response="100011" foes="100011" cont="0"/>
        <request index="4" response="000000" foes="000010" cont="0"/>
        <request index="5" response="000000" foes="001110" cont="0"/>
    </junction>
    <junction id="gneJ2" type="priority" x="100.00" y="100.00" incLanes="gneE9_0 -gneE4_0 -gneE2_0 -gneE1_0" intLanes=":gneJ2_0_0 :gneJ2_1_0 :gneJ2_12_0 :gneJ2_3_0 :gneJ2_4_0 :gneJ2_5_0 :gneJ2_6_0 :gneJ2_7_0 :gneJ2_13_0 :gneJ2_9_0 :gneJ2_10_0 :gneJ2_11_0" shape="96.80,107.20 103.20,107.20 103.64,104.98 104.20,104.20 104.98,103.64 105.98,103.31 107.20,103.20 107.20,96.80 104.98,96.36 104.20,95.80 103.64,95.02 103.31,94.02 103.20,92.80 96.80,92.80 96.36,95.02 95.80,95.80 95.02,96.36 94.02,96.69 92.80,96.80 92.80,103.20 95.02,103.64 95.80,104.20 96.36,104.98 96.69,105.98">
        <request index="0"  response="000000000000" foes="000100010000" cont="0"/>
        <request index="1"  response="000000000000" foes="111100110000" cont="0"/>
        <request index="2"  response="000011000000" foes="110011110000" cont="1"/>
        <request index="3"  response="000010000000" foes="100010000000" cont="0"/>
        <request index="4"  response="000110000111" foes="100110000111" cont="0"/>
        <request index="5"  response="011110000110" foes="011110000110" cont="0"/>
        <request index="6"  response="000000000000" foes="010000000100" cont="0"/>
        <request index="7"  response="000000000000" foes="110000111100" cont="0"/>
        <request index="8"  response="000000000011" foes="110000110011" cont="1"/>
        <request index="9"  response="000000000010" foes="000000100010" cont="0"/>
        <request index="10" response="000111000110" foes="000111100110" cont="0"/>
        <request index="11" response="000110011110" foes="000110011110" cont="0"/>
    </junction>
    <junction id="gneJ3" type="priority" x="100.00" y="0.00" incLanes="gneE2_0 gneE6_0 gneE3_0" intLanes=":gneJ3_0_0 :gneJ3_1_0 :gneJ3_2_0 :gneJ3_3_0 :gneJ3_4_0 :gneJ3_6_0" shape="96.80,7.20 103.20,7.20 103.64,4.98 104.20,4.20 104.98,3.64 105.98,3.31 107.20,3.20 107.20,-3.20 92.80,-3.20 92.80,3.20 95.02,3.64 95.80,4.20 96.36,4.98 96.69,5.98">
        <request index="0" response="001000" foes="001000" cont="0"/>
        <request index="1" response="111000" foes="111000" cont="0"/>
        <request index="2" response="000000" foes="100000" cont="0"/>
        <request index="3" response="000000" foes="100011" cont="0"/>
        <request index="4" response="000000" foes="000010" cont="0"/>
        <request index="5" response="001100" foes="001110" cont="1"/>
    </junction>
    <junction id="gneJ4" type="priority" x="200.00" y="100.00" incLanes="gneE12_0 -gneE5_0 gneE4_0" intLanes=":gneJ4_0_0 :gneJ4_1_0 :gneJ4_2_0 :gneJ4_6_0 :gneJ4_4_0 :gneJ4_5_0" shape="196.80,107.20 203.20,107.20 203.20,92.80 196.80,92.80 196.36,95.02 195.80,95.80 195.02,96.36 194.02,96.69 192.80,96.80 192.80,103.20 195.02,103.64 195.80,104.20 196.36,104.98 196.69,105.98">
        <request index="0" response="000000" foes="001000" cont="0"/>
        <request index="1" response="000000" foes="111000" cont="0"/>
        <request index="2" response="000000" foes="100000" cont="0"/>
        <request index="3" response="000011" foes="100011" cont="1"/>
        <request index="4" response="000010" foes="000010" cont="0"/>
        <request index="5" response="001110" foes="001110" cont="0"/>
    </junction>
    <junction id="gneJ5" type="priority" x="200.00" y="0.00" incLanes="gneE5_0 -gneE6_0" intLanes=":gneJ5_0_0 :gneJ5_1_0" shape="196.80,3.20 203.20,3.20 202.49,-0.36 201.60,-1.60 200.36,-2.49 198.76,-3.02 196.80,-3.20">
        <request index="0" response="00" foes="00" cont="0"/>
        <request index="1" response="00" foes="00" cont="0"/>
    </junction>
    <junction id="gneJ6" type="priority" x="0.00" y="200.00" incLanes="-gneE8_0 gneE7_0" intLanes=":gneJ6_0_0 :gneJ6_1_0" shape="3.20,203.20 3.20,196.80 -3.20,196.80 -2.49,200.36 -1.60,201.60 -0.36,202.49 1.24,203.02">
        <request index="0" response="00" foes="00" cont="0"/>
        <request index="1" response="00" foes="00" cont="0"/>
    </junction>
    <junction id="gneJ7" type="priority" x="100.00" y="200.00" incLanes="-gneE10_0 -gneE9_0 gneE8_0" intLanes=":gneJ7_0_0 :gneJ7_6_0 :gneJ7_2_0 :gneJ7_3_0 :gneJ7_4_0 :gneJ7_5_0" shape="107.20,203.20 107.20,196.80 104.98,196.36 104.20,195.80 103.64,195.02 103.31,194.02 103.20,192.80 96.80,192.80 96.36,195.02 95.80,195.80 95.02,196.36 94.02,196.69 92.80,196.80 92.80,203.20">
        <request index="0" response="000000" foes="001000" cont="0"/>
        <request index="1" response="110000" foes="111000" cont="1"/>
        <request index="2" response="100000" foes="100000" cont="0"/>
        <request index="3" response="100011" foes="100011" cont="0"/>
        <request index="4" response="000000" foes="000010" cont="0"/>
        <request index="5" response="000000" foes="001110" cont="0"/>
    </junction>
    <junction id="gneJ8" type="priority" x="200.00" y="200.00" incLanes="-gneE12_0 gneE10_0" intLanes=":gneJ8_0_0 :gneJ8_1_0" shape="203.20,196.80 196.80,196.80 196.80,203.20 200.36,202.49 201.60,201.60 202.49,200.36 203.02,198.76">
        <request index="0" response="00" foes="00" cont="0"/>
        <request index="1" response="00" foes="00" cont="0"/>
    </junction>

    <junction id=":gneJ1_6_0" type="internal" x="0.00" y="101.60" incLanes=":gneJ1_1_0 gneE0_0" intLanes=":gneJ1_3_0 :gneJ1_4_0 :gneJ1_5_0"/>
    <junction id=":gneJ2_12_0" type="internal" x="100.00" y="101.60" incLanes=":gneJ2_2_0 -gneE2_0" intLanes=":gneJ2_4_0 :gneJ2_5_0 :gneJ2_6_0 :gneJ2_7_0 :gneJ2_10_0 :gneJ2_11_0"/>
    <junction id=":gneJ2_13_0" type="internal" x="100.00" y="98.40" incLanes=":gneJ2_8_0 gneE9_0" intLanes=":gneJ2_0_0 :gneJ2_1_0 :gneJ2_4_0 :gneJ2_5_0 :gneJ2_10_0 :gneJ2_11_0"/>
    <junction id=":gneJ3_6_0" type="internal" x="98.40" y="0.00" incLanes=":gneJ3_5_0 gneE6_0" intLanes=":gneJ3_1_0 :gneJ3_2_0 :gneJ3_3_0"/>
    <junction id=":gneJ4_6_0" type="internal" x="200.00" y="98.40" incLanes=":gneJ4_3_0 gneE12_0" intLanes=":gneJ4_0_0 :gneJ4_1_0 :gneJ4_5_0"/>
    <junction id=":gneJ7_6_0" type="internal" x="101.60" y="200.00" incLanes=":gneJ7_1_0 gneE8_0" intLanes=":gneJ7_3_0 :gneJ7_4_0 :gneJ7_5_0"/>

    <connection from="-gneE0" to="gneE3" fromLane="0" toLane="0" via=":gneJ0_0_0" dir="l" state="M"/>
    <connection from="-gneE1" to="gneE2" fromLane="0" toLane="0" via=":gneJ2_9_0" dir="r" state="m"/>
    <connection from="-gneE1" to="gneE4" fromLane="0" toLane="0" via=":gneJ2_10_0" dir="s" state="m"/>
    <connection from="-gneE1" to="-gneE9" fromLane="0" toLane="0" via=":gneJ2_11_0" dir="l" state="m"/>
    <connection from="-gneE10" to="-gneE8" fromLane="0" toLane="0" via=":gneJ7_0_0" dir="s" state="M"/>
    <connection from="-gneE10" to="gneE9" fromLane="0" toLane="0" via=":gneJ7_1_0" dir="l" state="m"/>
    <connection from="-gneE12" to="-gneE10" fromLane="0" toLane="0" via=":gneJ8_0_0" dir="l" state="M"/>
    <connection from="-gneE2" to="gneE4" fromLane="0" toLane="0" via=":gneJ2_6_0" dir="r" state="M"/>
    <connection from="-gneE2" to="-gneE9" fromLane="0" toLane="0" via=":gneJ2_7_0" dir="s" state="M"/>
    <connection from="-gneE2" to="gneE1" fromLane="0" toLane="0" via=":gneJ2_8_0" dir="l" state="m"/>
    <connection from="-gneE3" to="gneE0" fromLane="0" toLane="0" via=":gneJ0_1_0" dir="r" state="M"/>
    <connection from="-gneE4" to="-gneE9" fromLane="0" toLane="0" via=":gneJ2_3_0" dir="r" state="m"/>
    <connection from="-gneE4" to="gneE1" fromLane="0" toLane="0" via=":gneJ2_4_0" dir="s" state="m"/>
    <connection from="-gneE4" to="gneE2" fromLane="0" toLane="0" via=":gneJ2_5_0" dir="l" state="m"/>
    <connection from="-gneE5" to="-gneE12" fromLane="0" toLane="0" via=":gneJ4_2_0" dir="s" state="M"/>
    <connection from="-gneE5" to="-gneE4" fromLane="0" toLane="0" via=":gneJ4_3_0" dir="l" state="m"/>
    <connection from="-gneE6" to="-gneE5" fromLane="0" toLane="0" via=":gneJ5_1_0" dir="l" state="M"/>
    <connection from="-gneE7" to="-gneE0" fromLane="0" toLane="0" via=":gneJ1_0_0" dir="s" state="M"/>
    <connection from="-gneE7" to="-gneE1" fromLane="0" toLane="0" via=":gneJ1_1_0" dir="l" state="m"/>
    <connection from="-gneE8" to="-gneE7" fromLane="0" toLane="0" via=":gneJ6_0_0" dir="l" state="M"/>
    <connection from="-gneE9" to="gneE10" fromLane="0" toLane="0" via=":gneJ7_2_0" dir="r" state="m"/>
    <connection from="-gneE9" to="-gneE8" fromLane="0" toLane="0" via=":gneJ7_3_0" dir="l" state="m"/>
    <connection from="gneE0" to="-gneE1" fromLane="0" toLane="0" via=":gneJ1_4_0" dir="r" state="M"/>
    <connection from="gneE0" to="gneE7" fromLane="0" toLane="0" via=":gneJ1_5_0" dir="s" state="M"/>
    <connection from="gneE1" to="gneE7" fromLane="0" toLane="0" via=":gneJ1_2_0" dir="r" state="m"/>
    <connection from="gneE1" to="-gneE0" fromLane="0" toLane="0" via=":gneJ1_3_0" dir="l" state="m"/>
    <connection from="gneE10" to="gneE12" fromLane="0" toLane="0" via=":gneJ8_1_0" dir="r" state="M"/>
    <connection from="gneE12" to="-gneE4" fromLane="0" toLane="0" via=":gneJ4_0_0" dir="r" state="M"/>
    <connection from="gneE12" to="gneE5" fromLane="0" toLane="0" via=":gneJ4_1_0" dir="s" state="M"/>
    <connection from="gneE2" to="-gneE3" fromLane="0" toLane="0" via=":gneJ3_0_0" dir="r" state="m"/>
    <connection from="gneE2" to="-gneE6" fromLane="0" toLane="0" via=":gneJ3_1_0" dir="l" state="m"/>
    <connection from="gneE3" to="-gneE6" fromLane="0" toLane="0" via=":gneJ3_4_0" dir="s" state="M"/>
    <connection from="gneE3" to="-gneE2" fromLane="0" toLane="0" via=":gneJ3_5_0" dir="l" state="m"/>
    <connection from="gneE4" to="gneE5" fromLane="0" toLane="0" via=":gneJ4_4_0" dir="r" state="m"/>
    <connection from="gneE4" to="-gneE12" fromLane="0" toLane="0" via=":gneJ4_5_0" dir="l" state="m"/>
    <connection from="gneE5" to="gneE6" fromLane="0" toLane="0" via=":gneJ5_0_0" dir="r" state="M"/>
    <connection from="gneE6" to="-gneE2" fromLane="0" toLane="0" via=":gneJ3_2_0" dir="r" state="M"/>
    <connection from="gneE6" to="-gneE3" fromLane="0" toLane="0" via=":gneJ3_3_0" dir="s" state="M"/>
    <connection from="gneE7" to="gneE8" fromLane="0" toLane="0" via=":gneJ6_1_0" dir="r" state="M"/>
    <connection from="gneE8" to="gneE9" fromLane="0" toLane="0" via=":gneJ7_4_0" dir="r" state="M"/>
    <connection from="gneE8" to="gneE10" fromLane="0" toLane="0" via=":gneJ7_5_0" dir="s" state="M"/>
    <connection from="gneE9" to="gneE1" fromLane="0" toLane="0" via=":gneJ2_0_0" dir="r" state="M"/>
    <connection from="gneE9" to="gneE2" fromLane="0" toLane="0" via=":gneJ2_1_0" dir="s" state="M"/>
    <connection from="gneE9" to="gneE4" fromLane="0" toLane="0" via=":gneJ2_2_0" dir="l" state="m"/>

    <connection from=":gneJ0_0" to="gneE3" fromLane="0" toLane="0" dir="l" state="M"/>
    <connection from=":gneJ0_1" to="gneE0" fromLane="0" toLane="0" dir="r" state="M"/>
    <connection from=":gneJ1_0" to="-gneE0" fromLane="0" toLane="0" dir="s" state="M"/>
    <connection from=":gneJ1_1" to="-gneE1" fromLane="0" toLane="0" via=":gneJ1_6_0" dir="l" state="m"/>
    <connection from=":gneJ1_6" to="-gneE1" fromLane="0" toLane="0" dir="l" state="M"/>
    <connection from=":gneJ1_2" to="gneE7" fromLane="0" toLane="0" dir="r" state="M"/>
    <connection from=":gneJ1_3" to="-gneE0" fromLane="0" toLane="0" dir="l" state="M"/>
    <connection from=":gneJ1_4" to="-gneE1" fromLane="0" toLane="0" dir="r" state="M"/>
    <connection from=":gneJ1_5" to="gneE7" fromLane="0" toLane="0" dir="s" state="M"/>
    <connection from=":gneJ2_0" to="gneE1" fromLane="0" toLane="0" dir="r" state="M"/>
    <connection from=":gneJ2_1" to="gneE2" fromLane="0" toLane="0" dir="s" state="M"/>
    <connection from=":gneJ2_2" to="gneE4" fromLane="0" toLane="0" via=":gneJ2_12_0" dir="l" state="m"/>
    <connection from=":gneJ2_12" to="gneE4" fromLane="0" toLane="0" dir="l" state="M"/>
    <connection from=":gneJ2_3" to="-gneE9" fromLane="0" toLane="0" dir="r" state="M"/>
    <connection from=":gneJ2_4" to="gneE1" fromLane="0" toLane="0" dir="s" state="M"/>
    <connection from=":gneJ2_5" to="gneE2" fromLane="0" toLane="0" dir="l" state="M"/>
    <connection from=":gneJ2_6" to="gneE4" fromLane="0" toLane="0" dir="r" state="M"/>
    <connection from=":gneJ2_7" to="-gneE9" fromLane="0" toLane="0" dir="s" state="M"/>
    <connection from=":gneJ2_8" to="gneE1" fromLane="0" toLane="0" via=":gneJ2_13_0" dir="l" state="m"/>
    <connection from=":gneJ2_13" to="gneE1" fromLane="0" toLane="0" dir="l" state="M"/>
    <connection from=":gneJ2_9" to="gneE2" fromLane="0" toLane="0" dir="r" state="M"/>
    <connection from=":gneJ2_10" to="gneE4" fromLane="0" toLane="0" dir="s" state="M"/>
    <connection from=":gneJ2_11" to="-gneE9" fromLane="0" toLane="0" dir="l" state="M"/>
    <connection from=":gneJ3_0" to="-gneE3" fromLane="0" toLane="0" dir="r" state="M"/>
    <connection from=":gneJ3_1" to="-gneE6" fromLane="0" toLane="0" dir="l" state="M"/>
    <connection from=":gneJ3_2" to="-gneE2" fromLane="0" toLane="0" dir="r" state="M"/>
    <connection from=":gneJ3_3" to="-gneE3" fromLane="0" toLane="0" dir="s" state="M"/>
    <connection from=":gneJ3_4" to="-gneE6" fromLane="0" toLane="0" dir="s" state="M"/>
    <connection from=":gneJ3_5" to="-gneE2" fromLane="0" toLane="0" via=":gneJ3_6_0" dir="l" state="m"/>
    <connection from=":gneJ3_6" to="-gneE2" fromLane="0" toLane="0" dir="l" state="M"/>
    <connection from=":gneJ4_0" to="-gneE4" fromLane="0" toLane="0" dir="r" state="M"/>
    <connection from=":gneJ4_1" to="gneE5" fromLane="0" toLane="0" dir="s" state="M"/>
    <connection from=":gneJ4_2" to="-gneE12" fromLane="0" toLane="0" dir="s" state="M"/>
    <connection from=":gneJ4_3" to="-gneE4" fromLane="0" toLane="0" via=":gneJ4_6_0" dir="l" state="m"/>
    <connection from=":gneJ4_6" to="-gneE4" fromLane="0" toLane="0" dir="l" state="M"/>
    <connection from=":gneJ4_4" to="gneE5" fromLane="0" toLane="0" dir="r" state="M"/>
    <connection from=":gneJ4_5" to="-gneE12" fromLane="0" toLane="0" dir="l" state="M"/>
    <connection from=":gneJ5_0" to="gneE6" fromLane="0" toLane="0" dir="r" state="M"/>