<?xml version="1.0" encoding="UTF-8"?>

<!-- generated on 2022-04-22 14:50:57 by Eclipse SUMO duarouter Version 1.10.0
<configuration xmlns:xsi="http://www.w3.org/2001/XMLSchema-instance" xsi:noNamespaceSchemaLocation="http://sumo.dlr.de/xsd/duarouterConfiguration.xsd">

    <input>
        <net-file value="C:\Users\William\2022-04-22-14-50-43\osm.net.xml"/>
        <route-files value="C:\Users\William\2022-04-22-14-50-43\osm.passenger.trips.xml"/>
    </input>

    <output>
        <output-file value="C:\Users\William\2022-04-22-14-50-43\osm.passenger.trips.xml.tmp"/>
        <write-trips value="true"/>
    </output>

    <time>
        <begin value="0"/>
        <end value="3600"/>
    </time>

    <report>
        <no-warnings value="true"/>
        <ignore-errors value="true"/>
        <no-step-log value="true"/>
    </report>

</configuration>
-->

<routes xmlns:xsi="http://www.w3.org/2001/XMLSchema-instance" xsi:noNamespaceSchemaLocation="http://sumo.dlr.de/xsd/routes_file.xsd">
    <vType id="veh_passenger" vClass="passenger"/>
    <trip id="veh0" type="veh_passenger" depart="0.00" departLane="best" from="4276079#0" to="-27292547#1"/>
    <trip id="veh1" type="veh_passenger" depart="4.07" departLane="best" from="112995576" to="-84226979#0"/>
    <trip id="veh4" type="veh_passenger" depart="16.30" departLane="best" from="3702770" to="-27292547#2"/>
    <trip id="veh8" type="veh_passenger" depart="32.59" departLane="best" from="-84226979#1" to="4211523"/>
    <trip id="veh9" type="veh_passenger" depart="36.67" departLane="best" from="55605697#1" to="-190072473"/>
    <trip id="veh12" type="veh_passenger" depart="48.89" departLane="best" from="84226979#4" to="1881406#1"/>
    <trip id="veh13" type="veh_passenger" depart="52.96" departLane="best" from="55605704#0" to="4211523"/>
    <trip id="veh15" type="veh_passenger" depart="61.11" departLane="best" departSpeed="max" from="4211522#0" to="92412887#0"/>
    <trip id="veh17" type="veh_passenger" depart="69.26" departLane="best" from="55605697#2-AddedOnRampEdge" to="4211523-AddedOnRampEdge"/>
    <trip id="veh18" type="veh_passenger" depart="73.33" departLane="best" from="55605704#1" to="4211523"/>
    <trip id="veh19" type="veh_passenger" depart="77.41" departLane="best" from="-84226979#2" to="122400824"/>
    <trip id="veh24" type="veh_passenger" depart="97.78" departLane="best" from="4276079#1" to="4211523"/>
    <trip id="veh25" type="veh_passenger" depart="101.85" departLane="best" from="-55545801#5" to="55545801#2"/>
    <trip id="veh28" type="veh_passenger" depart="114.07" departLane="best" departSpeed="max" from="4211522#0" to="4291122#1"/>
    <trip id="veh30" type="veh_passenger" depart="122.22" departLane="best" from="-84226979#3" to="-27292547#2"/>
    <trip id="veh31" type="veh_passenger" depart="126.29" departLane="best" departSpeed="max" from="232893030" to="-92412887#4"/>
    <trip id="veh32" type="veh_passenger" depart="130.37" departLane="best" from="-55605713#1" to="84226979#1"/>
    <trip id="veh33" type="veh_passenger" depart="134.44" departLane="best" from="55605708#1" to="1881406#1"/>
    <trip id="veh36" type="veh_passenger" depart="146.66" departLane="best" departSpeed="max" from="4211522#0" to="-92412887#2"/>
    <trip id="veh37" type="veh_passenger" depart="150.74" departLane="best" from="4211522#1-AddedOffRampEdge" to="55605713#1"/>
    <trip id="veh38" type="veh_passenger" depart="154.81" departLane="best" from="3702275#0" to="-55605713#1"/>
    <trip id="veh44" type="veh_passenger" depart="179.26" departLane="best" from="92412886" to="55605708#0"/>
    <trip id="veh45" type="veh_passenger" depart="183.33" departLane="best" from="-204492446" to="55545801#1"/>
    <trip id="veh49" type="veh_passenger" depart="199.63" departLane="best" departSpeed="max" from="4211521#0" to="84226979#3"/>
    <trip id="veh50" type="veh_passenger" depart="203.70" departLane="best" from="55605708#1" to="-92412887#2"/>
    <trip id="veh56" type="veh_passenger" depart="228.14" departLane="best" from="-112995576" to="1881406#1"/>
    <trip id="veh58" type="veh_passenger" depart="236.29" departLane="best" from="190072473" to="-3702275#3"/>
    <trip id="veh59" type="veh_passenger" depart="240.37" departLane="best" from="55605708#1" to="84226979#2"/>
    <trip id="veh61" type="veh_passenger" depart="248.51" departLane="best" from="-3997393" to="55545801#5"/>
    <trip id="veh62" type="veh_passenger" depart="252.59" departLane="best" from="55545801#5" to="-55545801#0"/>
    <trip id="veh65" type="veh_passenger" depart="264.81" departLane="best" from="3702770" to="-55605713#0"/>
    <trip id="veh67" type="veh_passenger" depart="272.96" departLane="best" from="-55605713#0" to="1881406#1"/>
    <trip id="veh71" type="veh_passenger" depart="289.25" departLane="best" from="27292547#0" to="4211523"/>
    <trip id="veh72" type="veh_passenger" depart="293.33" departLane="best" from="-84226979#3" to="-55605713#1"/>
    <trip id="veh74" type="veh_passenger" depart="301.48" departLane="best" from="-84226979#3" to="55605713#1"/>
    <trip id="veh76" type="veh_passenger" depart="309.62" departLane="best" from="-84226979#4" to="4276084#1"/>
    <trip id="veh83" type="veh_passenger" depart="338.14" departLane="best" from="92412887#4" to="-4291122#1"/>
    <trip id="veh84" type="veh_passenger" depart="342.22" departLane="best" from="3702275#1" to="1881406#1"/>
    <trip id="veh85" type="veh_passenger" depart="346.29" departLane="best" from="55605704#1" to="-84226979#5"/>
    <trip id="veh88" type="veh_passenger" depart="358.51" departLane="best" from="-92412887#0" to="55605721"/>
    <trip id="veh90" type="veh_passenger" depart="366.66" departLane="best" departSpeed="max" from="4211522#0" to="-3702275#1"/>
    <trip id="veh93" type="veh_passenger" depart="378.88" departLane="best" departSpeed="max" from="4211521#0" to="-55605713#1"/>
    <trip id="veh96" type="veh_passenger" depart="391.10" departLane="best" departSpeed="max" from="4211521#0" to="3702275#0"/>
    <trip id="veh100" type="veh_passenger" depart="407.40" departLane="best" from="92412886" to="4211523"/>
    <trip id="veh102" type="veh_passenger" depart="415.55" departLane="best" from="-3702275#3" to="4211523"/>
    <trip id="veh103" type="veh_passenger" depart="419.62" departLane="best" from="4211521#0-AddedOffRampEdge" to="55605704#1"/>
    <trip id="veh105" type="veh_passenger" depart="427.77" departLane="best" from="-3997417#0" to="-55545801#6"/>
    <trip id="veh106" type="veh_passenger" depart="431.84" departLane="best" from="4211522#1-AddedOffRampEdge" to="4291122#0"/>
    <trip id="veh108" type="veh_passenger" depart="439.99" departLane="best" from="55605710" to="-84226979#4"/>
    <trip id="veh109" type="veh_passenger" depart="444.07" departLane="best" from="3702770" to="4211523"/>
    <trip id="veh111" type="veh_passenger" depart="452.21" departLane="best" from="-84226979#5" to="3702259"/>
    <trip id="veh112" type="veh_passenger" depart="456.29" departLane="best" from="4276083#1" to="1881406#1"/>
    <trip id="veh119" type="veh_passenger" depart="484.81" departLane="best" from="4276079#1" to="-190072473"/>
    <trip id="veh120" type="veh_passenger" depart="488.88" departLane="best" from="55605697#2" to="1881406#1"/>
    <trip id="veh121" type="veh_passenger" depart="492.95" departLane="best" from="4276081" to="84226979#0"/>
    <trip id="veh122" type="veh_passenger" depart="497.03" departLane="best" from="-55545801#1" to="-4678970#0"/>
    <trip id="veh124" type="veh_passenger" depart="505.18" departLane="best" from="112995576" to="4211523"/>
    <trip id="veh127" type="veh_passenger" depart="517.40" departLane="best" departSpeed="max" from="4211521#0" to="55605713#1"/>
    <trip id="veh132" type="veh_passenger" depart="537.77" departLane="best" from="3702770" to="-190072473"/>
    <trip id="veh135" type="veh_passenger" depart="549.99" departLane="best" from="55605699" to="4211523"/>
    <trip id="veh136" type="veh_passenger" depart="554.06" departLane="best" from="-55545801#3" to="-55545801#0"/>
    <trip id="veh138" type="veh_passenger" depart="562.21" departLane="best" from="-92412887#0" to="-4291122#2"/>
    <trip id="veh140" type="veh_passenger" depart="570.36" departLane="best" from="3702275#1" to="4211523-AddedOnRampEdge"/>
    <trip id="veh142" type="veh_passenger" depart="578.51" departLane="best" from="55605708#0" to="92412887#2"/>
    <trip id="veh144" type="veh_passenger" depart="586.66" departLane="best" departSpeed="max" from="232893030" to="83621573"/>
    <trip id="veh145" type="veh_passenger" depart="590.73" departLane="best" from="55605697#2" to="-92412887#4"/>
    <trip id="veh147" type="veh_passenger" depart="598.88" departLane="best" from="-84226979#1" to="55605697#2-AddedOnRampEdge"/>
    <trip id="veh150" type="veh_passenger" depart="611.10" departLane="best" departSpeed="max" from="232893030" to="55605708#0"/>
    <trip id="veh155" type="veh_passenger" depart="631.47" departLane="best" from="84226979#5" to="-92412887#2"/>
    <trip id="veh159" type="veh_passenger" depart="647.77" departLane="best" from="3702261#0" to="4211523"/>
    <trip id="veh161" type="veh_passenger" depart="655.91" departLane="best" from="-112995576" to="55605721"/>
    <trip id="veh165" type="veh_passenger" depart="672.21" departLane="best" from="4276081" to="1881406#1"/>
    <trip id="veh166" type="veh_passenger" depart="676.28" departLane="best" departSpeed="max" from="232893030" to="55605704#1"/>
    <trip id="veh168" type="veh_passenger" depart="684.43" departLane="best" from="190072473" to="3702261#0"/>
    <trip id="veh169" type="veh_passenger" depart="688.51" departLane="best" from="3702275#1" to="1881406#1"/>
    <trip id="veh171" type="veh_passenger" depart="696.65" departLane="best" from="84226979#0" to="4291122#0"/>
    <trip id="veh172" type="veh_passenger" depart="700.73" departLane="best" from="55605713#1" to="4211523-AddedOnRampEdge"/>
    <trip id="veh174" type="veh_passenger" depart="708.88" departLane="best" from="-112995576" to="122400824"/>
    <trip id="veh178" type="veh_passenger" depart="725.17" departLane="best" departSpeed="max" from="4211521#0" to="55605713#1"/>
    <trip id="veh179" type="veh_passenger" depart="729.25" departLane="best" from="55545801#8" to="-55545801#4"/>
    <trip id="veh183" type="veh_passenger" depart="745.54" departLane="best" from="4276083#1" to="-84226979#0"/>
    <trip id="veh184" type="veh_passenger" depart="749.62" departLane="best" from="-55605713#0" to="-27292547#0"/>
    <trip id="veh187" type="veh_passenger" depart="761.84" departLane="best" from="-55545801#7" to="4303130"/>
    <trip id="veh188" type="veh_passenger" depart="765.91" departLane="best" departSpeed="max" from="4211521#0" to="-84226979#4"/>
    <trip id="veh189" type="veh_passenger" depart="769.99" departLane="best" from="4276079#1" to="-190072473"/>
    <trip id="veh190" type="veh_passenger" depart="774.06" departLane="best" from="55545801#3" to="55545801#6"/>
    <trip id="veh194" type="veh_passenger" depart="790.36" departLane="best" from="-92412887#0" to="55605704#1"/>
    <trip id="veh195" type="veh_passenger" depart="794.43" departLane="best" departSpeed="max" from="4211521#0" to="55605697#1"/>
    <trip id="veh197" type="veh_passenger" depart="802.58" departLane="best" from="4211522#1-AddedOffRampEdge" to="84226979#2"/>
    <trip id="veh198" type="veh_passenger" depart="806.65" departLane="best" from="55605713#0" to="4211523-AddedOnRampEdge"/>
    <trip id="veh202" type="veh_passenger" depart="822.95" departLane="best" departSpeed="max" from="4211521#0" to="-92412887#0"/>
    <trip id="veh203" type="veh_passenger" depart="827.02" departLane="best" from="-92412886" to="4276079#1"/>
    <trip id="veh207" type="veh_passenger" depart="843.32" departLane="best" from="112995576" to="1881406#1"/>
    <trip id="veh209" type="veh_passenger" depart="851.47" departLane="best" from="-84226979#3" to="4291122#3"/>
    <trip id="veh211" type="veh_passenger" depart="859.61" departLane="best" from="3702275#3" to="-55605713#0"/>
    <trip id="veh212" type="veh_passenger" depart="863.69" departLane="best" from="3702770" to="55605713#1"/>
    <trip id="veh215" type="veh_passenger" depart="875.91" departLane="best" from="3702261#0" to="-190072473"/>
    <trip id="veh217" type="veh_passenger" depart="884.06" departLane="best" from="55605704#1" to="84226979#3"/>
    <trip id="veh219" type="veh_passenger" depart="892.21" departLane="best" from="-84226979#1" to="-55605713#1"/>
    <trip id="veh221" type="veh_passenger" depart="900.35" departLane="best" from="27292547#0" to="4291122#0"/>
    <trip id="veh225" type="veh_passenger" depart="916.65" departLane="best" from="3702275#0" to="4211523"/>
    <trip id="veh226" type="veh_passenger" depart="920.72" departLane="best" from="-27292547#1" to="4276079#1"/>
    <trip id="veh227" type="veh_passenger" depart="924.80" departLane="best" from="-55545801#1" to="3997393"/>
    <trip id="veh229" type="veh_passenger" depart="932.95" departLane="best" from="-55605713#1" to="1881406#1"/>
    <trip id="veh240" type="veh_passenger" depart="977.76" departLane="best" departSpeed="max" from="4211522#0" to="-55605713#1"/>
    <trip id="veh243" type="veh_passenger" depart="989.98" departLane="best" from="55545801#3" to="-4678970#0"/>
    <trip id="veh244" type="veh_passenger" depart="994.06" departLane="best" from="55605697#2-AddedOnRampEdge" to="84226979#5"/>
    <trip id="veh246" type="veh_passenger" depart="1002.20" departLane="best" departSpeed="max" from="232893030" to="4291122#0"/>
    <trip id="veh247" type="veh_passenger" depart="1006.28" departLane="best" from="84226979#4" to="3702259"/>
    <trip id="veh249" type="veh_passenger" depart="1014.43" departLane="best" from="55605704#0" to="4211523"/>
    <trip id="veh252" type="veh_passenger" depart="1026.65" departLane="best" from="3702770" to="27292547#2"/>
    <trip id="veh253" type="veh_passenger" depart="1030.72" departLane="best" from="55605704#0" to="55605697#2-AddedOnRampEdge"/>
    <trip id="veh260" type="veh_passenger" depart="1059.24" departLane="best" from="3997393" to="55545801#2"/>
    <trip id="veh263" type="veh_passenger" depart="1071.46" departLane="best" from="55605710" to="-84226979#4"/>
    <trip id="veh264" type="veh_passenger" depart="1075.54" departLane="best" departSpeed="max" from="4211521#0" to="4211523"/>
    <trip id="veh265" type="veh_passenger" depart="1079.61" departLane="best" from="3702261#0" to="-27292547#1"/>
    <trip id="veh267" type="veh_passenger" depart="1087.76" departLane="best" from="-55605713#1" to="55605697#1"/>
    <trip id="veh268" type="veh_passenger" depart="1091.83" departLane="best" from="27292547#1" to="55605710"/>
    <trip id="veh271" type="veh_passenger" depart="1104.05" departLane="best" from="-3997417#1" to="55545801#1"/>
    <trip id="veh273" type="veh_passenger" depart="1112.20" departLane="best" from="4291122#1" to="4276081"/>
    <trip id="veh275" type="veh_passenger" depart="1120.35" departLane="best" from="-4291122#1" to="-55605713#1"/>
    <trip id="veh276" type="veh_passenger" depart="1124.42" departLane="best" from="4291122#1" to="1881406#1"/>
    <trip id="veh278" type="veh_passenger" depart="1132.57" departLane="best" departSpeed="max" from="4211522#0" to="3702275#0"/>
    <trip id="veh280" type="veh_passenger" depart="1140.72" departLane="best" from="4291122#3" to="-92412887#4"/>
    <trip id="veh282" type="veh_passenger" depart="1148.87" departLane="best" from="-55545801#7" to="-4678970#1"/>
    <trip id="veh293" type="veh_passenger" depart="1193.68" departLane="best" from="55605708#1" to="4211523"/>
    <trip id="veh294" type="veh_passenger" depart="1197.76" departLane="best" departSpeed="max" from="4211521#0" to="3702275#3"/>
    <trip id="veh299" type="veh_passenger" depart="1218.13" departLane="best" departSpeed="max" from="4211522#0" to="1881406#1"/>
    <trip id="veh306" type="veh_passenger" depart="1246.64" departLane="best" from="4211523" to="4211523"/>
    <trip id="veh309" type="veh_passenger" depart="1258.87" departLane="best" from="-55545801#5" to="-3997393"/>
    <trip id="veh311" type="veh_passenger" depart="1267.01" departLane="best" from="4211522#1-AddedOffRampEdge" to="1881406#1"/>
    <trip id="veh316" type="veh_passenger" depart="1287.38" departLane="best" from="4276079#1" to="55605714"/>
    <trip id="veh324" type="veh_passenger" depart="1319.98" departLane="best" departSpeed="max" from="232893030" to="-84226979#5"/>
    <trip id="veh325" type="veh_passenger" depart="1324.05" departLane="best" from="-4291122#1" to="84226979#5"/>
    <trip id="veh326" type="veh_passenger" depart="1328.12" departLane="best" from="55605699" to="4211523"/>
    <trip id="veh328" type="veh_passenger" depart="1336.27" departLane="best" from="4276083#1" to="-92412887#4"/>
    <trip id="veh330" type="veh_passenger" depart="1344.42" departLane="best" departSpeed="max" from="4211521#0" to="4276081"/>
    <trip id="veh332" type="veh_passenger" depart="1352.57" departLane="best" from="4211522#1-AddedOffRampEdge" to="4276079#0"/>
    <trip id="veh333" type="veh_passenger" depart="1356.64" departLane="best" departSpeed="max" from="4211521#0" to="-4291122#0"/>
    <trip id="veh334" type="veh_passenger" depart="1360.72" departLane="best" from="3678139" to="1881406#1"/>
    <trip id="veh335" type="veh_passenger" depart="1364.79" departLane="best" departSpeed="max" from="232893030" to="4291122#3"/>
    <trip id="veh338" type="veh_passenger" depart="1377.01" departLane="best" departSpeed="max" from="232893030" to="92412886"/>
    <trip id="veh340" type="veh_passenger" depart="1385.16" departLane="best" departSpeed="max" from="4211522#0" to="3702261#0"/>
    <trip id="veh344" type="veh_passenger" depart="1401.46" departLane="best" departSpeed="max" from="4211522#0" to="83621573"/>
    <trip id="veh345" type="veh_passenger" depart="1405.53" departLane="best" from="3997417#0" to="4303130"/>
    <trip id="veh347" type="veh_passenger" depart="1413.68" departLane="best" from="4211522#1-AddedOnRampEdge" to="-84226979#3"/>
    <trip id="veh349" type="veh_passenger" depart="1421.83" departLane="best" departSpeed="max" from="4211522#0" to="-4291122#0"/>
    <trip id="veh354" type="veh_passenger" depart="1442.20" departLane="best" from="112995576" to="55605699"/>
    <trip id="veh355" type="veh_passenger" depart="1446.27" departLane="best" from="92412887#2" to="-84226979#4"/>
    <trip id="veh356" type="veh_passenger" depart="1450.34" departLane="best" departSpeed="max" from="4211522#0" to="3678140"/>
    <trip id="veh360" type="veh_passenger" depart="1466.64" departLane="best" from="4211521#0-AddedOffRampEdge" to="55605697#2-AddedOnRampEdge"/>
    <trip id="veh361" type="veh_passenger" depart="1470.71" departLane="best" from="1881406#1" to="1881406#1"/>
    <trip id="veh364" type="veh_passenger" depart="1482.94" departLane="best" departSpeed="max" from="4211522#0" to="1881406#1-AddedOnRampEdge"/>
    <trip id="veh365" type="veh_passenger" depart="1487.01" departLane="best" departSpeed="max" from="4211522#0" to="4211522#1-AddedOffRampEdge"/>
    <trip id="veh366" type="veh_passenger" depart="1491.08" departLane="best" from="-55545801#7" to="4303130"/>
    <trip id="veh367" type="veh_passenger" depart="1495.16" departLane="best" from="4211522#1" to="-84226979#2"/>
    <trip id="veh369" type="veh_passenger" depart="1503.31" departLane="best" from="55605697#2" to="3678141"/>
    <trip id="veh370" type="veh_passenger" depart="1507.38" departLane="best" from="4276081" to="55605697#2-AddedOnRampEdge"/>
    <trip id="veh372" type="veh_passenger" depart="1515.53" departLane="best" from="4211522#1-AddedOffRampEdge" to="55605708#1"/>
    <trip id="veh373" type="veh_passenger" depart="1519.60" departLane="best" from="55605708#1" to="3702275#3"/>
    <trip id="veh374" type="veh_passenger" depart="1523.68" departLane="best" departSpeed="max" from="4211522#0" to="3702770"/>
    <trip id="veh377" type="veh_passenger" depart="1535.90" departLane="best" departSpeed="max" from="4211521#0" to="92412886"/>
    <trip id="veh378" type="veh_passenger" depart="1539.97" departLane="best" from="27292547#1" to="4291122#3"/>
    <trip id="veh379" type="veh_passenger" depart="1544.05" departLane="best" from="3702261#0" to="1881406#1"/>
    <trip id="veh380" type="veh_passenger" depart="1548.12" departLane="best" from="55545801#0" to="55545801#5"/>
    <trip id="veh384" type="veh_passenger" depart="1564.42" departLane="best" from="55605708#1" to="3702275#3"/>
    <trip id="veh385" type="veh_passenger" depart="1568.49" departLane="best" from="4291122#1" to="55605713#1"/>
    <trip id="veh389" type="veh_passenger" depart="1584.79" departLane="best" from="-55545801#5" to="-3997417#0"/>
    <trip id="veh390" type="veh_passenger" depart="1588.86" departLane="best" from="55605708#0" to="4211523-AddedOnRampEdge"/>
    <trip id="veh391" type="veh_passenger" depart="1592.93" departLane="best" from="-84226979#5" to="55605714"/>
    <trip id="veh392" type="veh_passenger" depart="1597.01" departLane="best" from="-55545801#2" to="3997393"/>
    <trip id="veh393" type="veh_passenger" depart="1601.08" departLane="best" from="-190072473" to="55605697#2"/>
    <trip id="veh394" type="veh_passenger" depart="1605.16" departLane="best" from="55605713#1" to="4291122#0"/>
    <trip id="veh396" type="veh_passenger" depart="1613.30" departLane="best" from="27292547#2" to="4211523"/>
    <trip id="veh397" type="veh_passenger" depart="1617.38" departLane="best" from="-92412887#0" to="55605704#0"/>
    <trip id="veh398" type="veh_passenger" depart="1621.45" departLane="best" from="-55605713#0" to="3678141"/>
    <trip id="veh399" type="veh_passenger" depart="1625.53" departLane="best" departSpeed="max" from="4211521#0" to="-84226979#3"/>
    <trip id="veh400" type="veh_passenger" depart="1629.60" departLane="best" from="4211522#1" to="4211523"/>
    <trip id="veh402" type="veh_passenger" depart="1637.75" departLane="best" from="92412887#2" to="4276083#1"/>
    <trip id="veh403" type="veh_passenger" depart="1641.82" departLane="best" from="112995576" to="4211523"/>
    <trip id="veh405" type="veh_passenger" depart="1649.97" departLane="best" from="-3702275#1" to="4211523"/>
    <trip id="veh406" type="veh_passenger" depart="1654.04" departLane="best" departSpeed="max" from="4211521#0" to="55605713#1"/>
    <trip id="veh408" type="veh_passenger" depart="1662.19" departLane="best" from="4211522#1-AddedOnRampEdge" to="1881406#1-AddedOnRampEdge"/>
    <trip id="veh411" type="veh_passenger" depart="1674.41" departLane="best" from="4276079#0" to="1881406#1"/>
    <trip id="veh415" type="veh_passenger" depart="1690.71" departLane="best" from="-55545801#5" to="-55545801#0"/>
    <trip id="veh416" type="veh_passenger" depart="1694.78" departLane="best" departSpeed="max" from="4211522#0" to="92412887#0"/>
    <trip id="veh417" type="veh_passenger" depart="1698.86" departLane="best" departSpeed="max" from="4211522#0" to="55605714"/>
    <trip id="veh418" type="veh_passenger" depart="1702.93" departLane="best" from="55605697#2-AddedOnRampEdge" to="-92412887#0"/>
    <trip id="veh423" type="veh_passenger" depart="1723.30" departLane="best" from="84226979#5" to="55605708#0"/>
    <trip id="veh425" type="veh_passenger" depart="1731.45" departLane="best" from="92412886" to="55605697#2"/>
    <trip id="veh428" type="veh_passenger" depart="1743.67" departLane="best" departSpeed="max" from="4211521#0" to="4276084#1"/>
    <trip id="veh429" type="veh_passenger" depart="1747.75" departLane="best" from="4276083#1" to="4211523"/>
    <trip id="veh430" type="veh_passenger" depart="1751.82" departLane="best" from="55605697#2-AddedOnRampEdge" to="84226979#0"/>
    <trip id="veh432" type="veh_passenger" depart="1759.97" departLane="best" from="-27292547#1" to="55605710"/>
    <trip id="veh433" type="veh_passenger" depart="1764.04" departLane="best" departSpeed="max" from="4211522#0" to="55605714"/>
    <trip id="veh434" type="veh_passenger" depart="1768.12" departLane="best" from="-84226979#1" to="-3702275#3"/>
    <trip id="veh435" type="veh_passenger" depart="1772.19" departLane="best" from="55605697#2-AddedOnRampEdge" to="55605714"/>
    <trip id="veh438" type="veh_passenger" depart="1784.41" departLane="best" from="-4291122#2" to="55605713#0"/>
    <trip id="veh441" type="veh_passenger" depart="1796.63" departLane="best" from="84226979#1" to="3702275#0"/>
    <trip id="veh442" type="veh_passenger" depart="1800.71" departLane="best" departSpeed="max" from="4211521#0" to="3702261#0"/>
    <trip id="veh443" type="veh_passenger" depart="1804.78" departLane="best" from="3702259" to="3702275#3"/>
    <trip id="veh444" type="veh_passenger" depart="1808.86" departLane="best" from="84226979#2" to="55605704#1"/>
    <trip id="veh445" type="veh_passenger" depart="1812.93" departLane="best" departSpeed="max" from="4211522#0" to="92412887#2"/>
    <trip id="veh446" type="veh_passenger" depart="1817.00" departLane="best" from="-55545801#7" to="-4678970#1"/>
    <trip id="veh447" type="veh_passenger" depart="1821.08" departLane="best" from="4276081" to="4276079#1"/>
    <trip id="veh448" type="veh_passenger" depart="1825.15" departLane="best" from="4211522#1-AddedOffRampEdge" to="-27292547#0"/>
    <trip id="veh451" type="veh_passenger" depart="1837.37" departLane="best" from="-3997393" to="55545801#6"/>
    <trip id="veh452" type="veh_passenger" depart="1841.45" departLane="best" from="55605708#0" to="1881406#1"/>
    <trip id="veh454" type="veh_passenger" depart="1849.60" departLane="best" from="-112995576" to="55605708#0"/>
    <trip id="veh455" type="veh_passenger" depart="1853.67" departLane="best" from="-55545801#2" to="-55545801#0"/>
    <trip id="veh457" type="veh_passenger" depart="1861.82" departLane="best" from="4276081" to="-27292547#1"/>
    <trip id="veh458" type="veh_passenger" depart="1865.89" departLane="best" from="-84226979#4" to="1881406#1"/>
    <trip id="veh461" type="veh_passenger" depart="1878.11" departLane="best" from="55545801#3" to="3997417#1"/>
    <trip id="veh464" type="veh_passenger" depart="1890.34" departLane="best" from="84226979#1" to="-3702275#0"/>
    <trip id="veh467" type="veh_passenger" depart="1902.56" departLane="best" from="84226979#5" to="-3702275#3"/>
    <trip id="veh468" type="veh_passenger" depart="1906.63" departLane="best" departSpeed="max" from="4211521#0" to="3702259"/>
    <trip id="veh472" type="veh_passenger" depart="1922.93" departLane="best" from="-3997378" to="-96747041#0"/>
    <trip id="veh475" type="veh_passenger" depart="1935.15" departLane="best" departSpeed="max" from="4211522#0" to="3702770"/>
    <trip id="veh476" type="veh_passenger" depart="1939.22" departLane="best" from="4211522#1-AddedOnRampEdge" to="-4291122#2"/>
    <trip id="veh481" type="veh_passenger" depart="1959.59" departLane="best" from="3702770" to="4276084#1"/>
    <trip id="veh486" type="veh_passenger" depart="1979.96" departLane="best" from="4211522#1-AddedOffRampEdge" to="4211523"/>
    <trip id="veh490" type="veh_passenger" depart="1996.26" departLane="best" from="4211522#1-AddedOnRampEdge" to="1881406#1-AddedOnRampEdge"/>
    <trip id="veh491" type="veh_passenger" depart="2000.33" departLane="best" from="4211522#1" to="-55605713#1"/>
    <trip id="veh492" type="veh_passenger" depart="2004.41" departLane="best" from="4276079#1" to="-84226979#0"/>
    <trip id="veh495" type="veh_passenger" depart="2016.63" departLane="best" from="4211522#1" to="55605697#2"/>
    <trip id="veh496" type="veh_passenger" depart="2020.70" departLane="best" from="55605704#0" to="92412887#0"/>
    <trip id="veh497" type="veh_passenger" depart="2024.78" departLane="best" from="55605697#2" to="4211523-AddedOnRampEdge"/>
    <trip id="veh498" type="veh_passenger" depart="2028.85" departLane="best" from="4276079#0" to="-27292547#1"/>
    <trip id="veh501" type="veh_passenger" depart="2041.07" departLane="best" from="4291122#3" to="1881406#1"/>
    <trip id="veh502" type="veh_passenger" depart="2045.15" departLane="best" from="27292547#1" to="-190072473"/>
    <trip id="veh503" type="veh_passenger" depart="2049.22" departLane="best" from="55605708#0" to="4211523"/>
    <trip id="veh507" type="veh_passenger" depart="2065.52" departLane="best" from="3702770" to="1881406#1-AddedOnRampEdge"/>
    <trip id="veh515" type="veh_passenger" depart="2098.11" departLane="best" from="55545801#4" to="-4678970#0"/>
    <trip id="veh518" type="veh_passenger" depart="2110.33" departLane="best" from="4276083#1" to="-3702275#1"/>
    <trip id="veh519" type="veh_passenger" depart="2114.41" departLane="best" from="3702275#0" to="4211523"/>
    <trip id="veh520" type="veh_passenger" depart="2118.48" departLane="best" from="-190072473" to="1881406#1"/>
    <trip id="veh522" type="veh_passenger" depart="2126.63" departLane="best" from="-92412887#2" to="1881406#1"/>
    <trip id="veh528" type="veh_passenger" depart="2151.07" departLane="best" from="4211522#1" to="4211523"/>
    <trip id="veh531" type="veh_passenger" depart="2163.29" departLane="best" departSpeed="max" from="232893030" to="55605697#1"/>
    <trip id="veh534" type="veh_passenger" depart="2175.52" departLane="best" from="55605704#0" to="-84226979#4"/>
    <trip id="veh535" type="veh_passenger" depart="2179.59" departLane="best" from="3702275#0" to="1881406#1"/>
    <trip id="veh536" type="veh_passenger" depart="2183.66" departLane="best" from="27292547#1" to="1881406#1"/>
    <trip id="veh540" type="veh_passenger" depart="2199.96" departLane="best" from="55605697#2" to="-84226979#2"/>
    <trip id="veh541" type="veh_passenger" depart="2204.03" departLane="best" from="-55545801#2" to="-55545801#7"/>
    <trip id="veh546" type="veh_passenger" depart="2224.40" departLane="best" departSpeed="max" from="4211522#0" to="4276079#0"/>