<?xml version="1.0" encoding="UTF-8"?>

<!-- generated on 2022-04-22 14:50:57 by Eclipse SUMO polyconvert Version 1.10.0
<configuration xmlns:xsi="http://www.w3.org/2001/XMLSchema-instance" xsi:noNamespaceSchemaLocation="http://sumo.dlr.de/xsd/polyconvertConfiguration.xsd">

    <input>
        <net-file value="osm.net.xml"/>
        <osm-files value="osm_bbox.osm.xml"/>
        <osm.keep-full-type value="true"/>
        <type-file value="C:\Users\William\src\sumo-1.10.0\data\typemap\osmPolyconvert.typ.xml"/>
    </input>

    <output>
        <output-file value="osm.poly.xml"/>
    </output>

    <processing>
        <poi-layer-offset value="5"/>
    </processing>

    <report>
        <verbose value="true"/>
    </report>

</configuration>
-->

<additional xmlns:xsi="http://www.w3.org/2001/XMLSchema-instance" xsi:noNamespaceSchemaLocation="http://sumo.dlr.de/xsd/additional_file.xsd">
    <location netOffset="-306865.06,-5787540.24" convBoundary="-4560.53,-29730.42,12907.72,7920.70" origBoundary="0.124084,51.935838,0.358049,52.279857" projParameter="+proj=utm +zone=31 +ellps=WGS84 +datum=WGS84 +units=m +no_defs"/>

    <poly id="122400825" type="waterway.stream" color="181,209,209" fill="0" layer="-4.00" shape="1350.469436,64.183753 1372.937384,56.576051 1385.310152,53.468676 1398.941260,52.996380 1407.250254,54.311563 1420.375386,57.734264 1437.854806,62.469473 1457.311026,69.667214 1475.414771,77.630098 1481.147169,81.138732 1530.738259,100.989959 1579.004481,122.329470 1591.101332,127.830286 1624.083689,149.193688 1641.232112,164.488188 1648.840112,171.565921 1654.194191,180.334434 1660.646029,187.768714 1682.034339,213.634448 1687.116623,220.331071 1695.976104,229.699026 1703.708642,233.809841 1710.437818,236.389291 1720.104344,238.498812 1733.384038,239.922978 1744.267664,239.891917 1756.034519,242.532779 1760.731613,244.578381 1767.373298,250.735942 1773.778533,258.918267 1779.163664,265.135555 1783.650005,272.879815 1790.814668,279.117411 1798.704254,283.578645 1810.555209,285.035963 1818.412129,287.059708 1843.901041,292.667129 1873.704073,299.266124 1883.830661,299.654372 1895.507499,299.971610 1903.789270,300.598212 1911.107619,302.141788 1921.325907,304.018789 1926.919371,307.488727 1932.830662,311.748183 1939.312200,319.081420 1943.632785,323.959129 1953.828575,332.340469 1962.198338,339.144228 1967.649258,343.176511 1974.648531,346.380622 1983.728672,349.259392 1995.896237,350.949904 2004.868191,353.153596 2013.563334,356.693170 2027.823999,363.514571 2047.604633,372.439188 2065.797157,380.278180 2078.859520,386.366458 2088.266802,388.330772 2100.407432,390.568234 2110.189047,392.128383 2116.548244,395.769416 2126.479164,401.199144 2135.646341,407.048120 2142.319784,408.728268 2152.236062,413.779987 2161.313519,417.305057 2166.555987,422.147374 2178.944040,430.979087 2186.560460,436.887977 2197.330001,443.844517 2211.768997,455.303222 2225.914680,464.657450 2239.068045,473.649094 2251.872713,481.050643 2263.784473,490.134772 2273.054624,498.485596 2286.242177,511.384746 2303.253152,526.218932 2325.408506,549.039750 2338.864766,570.336286 2334.914299,616.569018 2332.241883,663.832676 2333.176017,674.932589 2331.287607,684.860682 2311.335456,734.249368 2294.691749,770.080655 2292.270142,779.305497"/>
    <poly id="122400826" type="waterway.stream" color="181,209,209" fill="0" layer="-4.00" shape="2292.270142,779.305497 2284.756213,805.308114"/>
    <poly id="122400831" type="landuse.farmland" color="194,194,130" fill="1" layer="-3.00" shape="2746.439157,1012.003031 2905.375138,1118.285229 2951.372654,1141.895858 2916.582565,1077.264233 2862.762302,1020.469123 2805.661665,1010.738361 2746.439157,1012.003031"/>
    <poly id="125965221" type="natural.wood" color="140,196,107" fill="1" layer="-4.00" shape="5232.706354,750.345746 5655.244432,834.485157 5714.022153,786.269417 5607.128344,764.918572 5462.014874,735.943685 5381.432188,718.532964 5270.332880,697.671671 5232.706354,750.345746"/>
    <poly id="125965223" type="natural.wood" color="140,196,107" fill="1" layer="-4.00" shape="5215.744649,690.234296 4898.207783,626.089212 4887.298225,641.225367 4889.697125,685.052828 5175.600940,741.456572 5215.744649,690.234296"/>
    <poly id="128002760" type="natural.wood" color="140,196,107" fill="1" layer="-4.00" shape="6072.969795,1167.239438 6079.675421,1228.108299 6134.156755,1222.251965 6123.387749,1171.302392 6123.383547,1171.191196 6111.348883,1153.717997 6098.643694,1167.003924 6072.969795,1167.239438"/>
    <poly id="128207840" type="landuse.farmland" color="194,194,130" fill="1" layer="-3.00" shape="5829.983291,29.357485 5817.840220,280.831954 5829.161343,312.996974 5844.065777,341.696931 5862.642359,372.897087 6015.882354,574.665858 5806.590162,718.490950 5724.877760,774.533566 5715.544055,781.301044 5381.432188,718.532964 5270.332880,697.671671 5270.904909,679.042500 5470.376338,470.089660 5543.229229,353.122514 5640.292903,203.024675 5726.118193,112.984902 5829.983291,29.357485"/>
    <poly id="128208059" type="landuse.farmland" color="194,194,130" fill="1" layer="-3.00" shape="4943.823748,505.816462 4898.207783,626.089212 5215.744649,690.234296 5236.188057,694.491380 5442.915983,473.647515 5340.553929,362.088399 5240.518188,423.845127 4963.479013,492.552806 4943.823748,505.816462"/>
    <poly id="128208399" type="natural.wood" color="140,196,107" fill="1" layer="-4.00" shape="6150.274725,698.824313 6230.417990,793.265213 6203.403552,803.694909 6182.827973,764.206503 6144.007920,707.846913 6150.274725,698.824313"/>
    <poly id="128208400" type="natural.wood" color="140,196,107" fill="1" layer="-4.00" shape="6138.368338,713.917213 6174.258169,770.387453 6191.082731,807.812705 6182.659450,811.170853 6138.368338,713.917213"/>
    <poly id="128208402" type="landuse.farmland" color="194,194,130" fill="1" layer="-3.00" shape="6310.721786,1022.127572 6305.773791,981.469765 6290.633058,949.837841 6244.615438,838.840722 6246.220166,829.894080 6337.690703,796.687020 6474.631701,755.942770 6630.918070,715.909855 6633.819701,724.296775 6625.393041,732.475875 6310.721786,1022.127572"/>
    <poly id="128327166" type="landuse.farmland" color="194,194,130" fill="1" layer="-3.00" shape="6578.522374,1129.970492 6710.549963,1115.518749 6753.205533,1107.809836 6785.144901,1097.776672 6688.414347,947.886176 6578.522374,1129.970492"/>
    <poly id="128327168" type="landuse.farmland" color="194,194,130" fill="1" layer="-3.00" shape="6804.960135,1097.798865 6704.208906,945.743333 6743.574528,860.812382 6631.852080,738.880268 6653.056250,717.814952 6791.469843,690.642743 6896.389288,670.591905 7039.815372,649.696635 7149.788948,641.966139 7226.812306,636.210603 7230.031202,682.935719 7181.233011,906.104609 7068.336041,972.727839 7018.507819,999.811852 6905.275937,1055.973333 6833.109689,1087.017894 6804.960135,1097.798865"/>
    <poly id="128327169" type="landuse.farmland" color="194,194,130" fill="1" layer="-3.00" shape="6718.816964,658.413797 6922.367294,619.839656 7119.831674,598.361580 6932.994689,453.768927 6718.816964,658.413797"/>
    <poly id="128327171" type="landuse.farmland" color="194,194,130" fill="1" layer="-3.00" shape="5497.202015,1046.982447 5700.556760,990.970444 5845.174162,934.249861 5992.596719,873.853149 6169.222196,809.273220 6126.221947,720.122025 6080.786529,638.791133 6038.611795,620.953951 6007.957497,596.824301 5779.607937,753.074561 5733.842262,784.750530 5638.410507,861.558508 5568.923852,925.681708 5497.202015,1046.982447"/>
    <poly id="128327173" type="landuse.farmland" color="194,194,130" fill="1" layer="-3.00" shape="6317.368124,1183.685007 6314.499626,1178.359230 6308.869283,1129.409042 6305.641022,1101.692444 6309.793909,1063.497165 6572.788362,1130.632077 6363.120953,1181.044829 6325.277055,1186.103466 6317.368124,1183.685007"/>
    <poly id="128327175" type="landuse.farmland" color="194,194,130" fill="1" layer="-3.00" shape="6307.994321,1043.911142 6304.764608,1056.738554 6576.145148,1130.048977 6733.380635,862.565966 6626.625866,743.408861 6307.994321,1043.911142"/>
    <poly id="128411306" type="landuse.farmland" color="194,194,130" fill="1" layer="-3.00" shape="6134.156755,1222.251965 6148.046977,1221.504363 6223.143842,1209.157593 6231.490386,1205.234464 6234.978664,1200.347896 6240.185686,1173.058800 6283.692419,1141.361395 6287.392114,1131.021679 6284.380869,1060.871044 6281.190353,1026.549742 6270.537734,969.771730 6202.979617,840.279570 5926.938868,952.502795 5923.797980,957.710507 5923.268720,962.162433 5958.548629,1245.872879 6079.096583,1231.793734 6079.675421,1228.108299 6072.969795,1167.239438 6066.869516,1131.613977 6114.918830,1131.267699 6123.387749,1171.302392 6134.156755,1222.251965"/>
    <poly id="129413637" type="natural.wood" color="140,196,107" fill="1" layer="-4.00" shape="6010.376566,589.160757 6027.495998,576.075285 6075.484359,631.708965 6025.071369,609.105511 6010.376566,589.160757"/>
    <poly id="129431676" type="landuse.farmland" color="194,194,130" fill="1" layer="-3.00" shape="7345.321465,941.476221 7330.469388,930.831760 7328.029110,909.922301 7336.617171,885.436381 7378.790342,816.518448 7358.042481,791.675045 7334.717813,756.684029 7268.207041,704.273489 7265.156984,681.705524 7270.976148,641.221921 7280.093066,629.900202 7334.231738,626.397662 7399.697123,630.532553 7441.363162,626.040550 7482.373723,623.767128 7791.855455,637.790051 7804.779886,649.755201 7908.442237,864.513590 7865.025344,886.861324 7840.162725,902.935999 7786.970282,912.989773 7743.332748,923.398834 7671.221251,937.814995 7602.915041,955.753052 7550.515362,967.227283 7487.557881,977.127197 7418.803873,963.605343 7345.321465,941.476221"/>
    <poly id="129432328" type="natural.wood" color="140,196,107" fill="1" layer="-4.00" shape="7334.734659,981.403817 7355.902628,949.129776 7478.132580,979.674425 7546.522146,973.824326 7545.783320,977.103518 7544.951895,980.831592 7474.356730,986.775599 7388.919191,988.155479 7334.734659,981.403817"/>
    <poly id="129432329" type="building.yes" color="255,230,230" fill="1" layer="-1.00" shape="7235.213845,891.560554 7250.175291,901.465713 7255.328547,893.711315 7240.367090,883.806140 7235.213845,891.560554"/>
    <poly id="129432330" type="building.yes" color="255,230,230" fill="1" layer="-1.00" shape="7240.500782,1021.744738 7251.669755,1023.195921 7253.321513,1010.539898 7258.538515,1011.223628 7256.030608,1030.403664 7239.651913,1028.279619 7240.500782,1021.744738"/>
    <poly id="129432332" type="building.yes" color="255,230,230" fill="1" layer="-1.00" shape="7228.533632,962.086134 7237.904752,963.560292 7239.540937,953.220984 7230.162968,951.747079 7228.533632,962.086134"/>
    <poly id="129432334" type="building.yes" color="255,230,230" fill="1" layer="-1.00" shape="7163.112084,946.271204 7169.236732,956.909075 7174.927851,953.644155 7176.281677,955.998501 7182.776123,952.269128 7177.463547,943.037178 7179.545939,941.845403 7177.380483,938.096239 7163.112084,946.271204"/>
    <poly id="129432335" type="building.yes" color="255,230,230" fill="1" layer="-1.00" shape="7239.215005,963.845131 7245.778254,965.224343 7247.481258,957.209799 7240.917581,955.819464 7239.215005,963.845131"/>
    <poly id="129433941" type="building.yes" color="255,230,230" fill="1" layer="-1.00" shape="7504.386936,1061.457691 7499.739343,1045.318920 7512.975351,1041.526400 7517.616073,1057.665438 7504.386936,1061.457691"/>
    <poly id="129433943" type="building.yes" color="255,230,230" fill="1" layer="-1.00" shape="7519.981982,1023.914909 7530.733230,1021.162133 7528.555169,1012.691971 7517.803902,1015.444751 7519.981982,1023.914909"/>
    <poly id="129433944" type="building.yes" color="255,230,230" fill="1" layer="-1.00" shape="8138.865700,785.231228 8134.460532,774.427784 8144.035115,770.551186 8148.433018,781.343774 8138.865700,785.231228"/>
    <poly id="129433945" type="building.yes" color="255,230,230" fill="1" layer="-1.00" shape="8062.771144,782.464106 8112.632449,766.324533 8111.484858,760.510352 8108.225463,761.511882 8098.623210,764.465367 8060.701515,776.138791 8062.771144,782.464106"/>
    <poly id="129433946" type="building.yes" color="255,230,230" fill="1" layer="-1.00" shape="8096.294249,756.691032 8098.623210,764.465367 8108.225463,761.511882 8105.904356,753.581357 8096.294249,756.691032"/>
    <poly id="129433950" type="building.yes" color="255,230,230" fill="1" layer="-1.00" shape="8123.661450,802.268456 8120.358844,792.782293 8081.039913,806.411916 8082.817465,811.512158 8091.311860,808.566653 8093.710839,815.469827 8112.793333,808.865891 8111.919065,806.337493 8123.661450,802.268456"/>
    <poly id="129433951" type="building.yes" color="255,230,230" fill="1" layer="-1.00" shape="7509.123664,1086.902172 7524.758751,1082.340437 7528.617887,1095.513422 7512.982422,1100.064026 7509.123664,1086.902172"/>
    <poly id="129433952" type="building.yes" color="255,230,230" fill="1" layer="-1.00" shape="8111.302803,775.583003 8108.811542,767.491812 8112.632449,766.324533 8116.716832,765.069461 8119.208081,773.160656 8111.302803,775.583003"/>
    <poly id="129433953" type="natural.wood" color="140,196,107" fill="1" layer="-4.00" shape="7893.537160,814.595739 7914.813799,819.289042 7939.019090,813.962545 7938.071457,832.872110 7952.190247,847.532154 7948.646061,855.726632 7962.517553,863.414206 7953.974266,870.715621 7945.046878,867.386207 7942.314460,887.219969 7936.229196,891.846079 7932.677583,894.540077 7893.537160,814.595739"/>
    <poly id="129433954" type="building.yes" color="255,230,230" fill="1" layer="-1.00" shape="8057.169753,785.769146 8063.929220,783.801558 8071.015526,808.134110 8064.715976,809.962004 8060.572745,795.741467 8054.002465,797.646309 8052.338198,791.918271 8058.448182,790.141991 8057.169753,785.769146"/>
    <poly id="129433957" type="building.yes" color="255,230,230" fill="1" layer="-1.00" shape="8121.660411,791.920771 8128.683307,789.498018 8124.528594,777.527165 8117.512512,779.949667 8121.660411,791.920771"/>
    <poly id="129435482" type="landuse.farmland" color="194,194,130" fill="1" layer="-3.00" shape="8668.336359,821.711259 8756.993508,975.745857 8764.376836,976.940607 8809.460542,985.505426 8860.812489,1004.816390 8925.897002,1038.259238 8991.986857,1059.227651 9039.911025,1065.495203 9080.323140,1066.920495 9135.201601,1062.674964 9194.064642,1047.313959 9228.046433,1033.613182 9170.147329,1009.965416 9053.063837,959.423658 8668.336359,821.711259"/>
    <poly id="129435486" type="building.yes" color="255,230,230" fill="1" layer="-1.00" shape="8225.614088,979.960780 8237.760861,981.232879 8236.925967,989.092068 8234.708229,988.863145 8232.984747,988.682567 8232.298494,995.211123 8228.020943,994.769652 8228.698101,988.363922 8226.356590,988.117357 8226.559576,986.227935 8224.966694,986.064751 8225.614088,979.960780"/>
    <poly id="129435493" type="landuse.farmland" color="194,194,130" fill="1" layer="-3.00" shape="8862.998055,354.036781 8854.151410,358.575178 8821.906193,383.382061 8788.429932,411.675751 8748.461623,446.001757 8726.611357,468.150546 8712.336728,488.736634 8693.181621,516.386103 8673.127069,552.197775 8655.665384,565.074889 8629.499439,584.823961 8602.805163,621.585002 8567.361181,641.424263 8637.085728,764.840187 9050.786687,904.089374 9040.448343,852.506809 8883.022382,378.913047 8862.998055,354.036781"/>
    <poly id="129435694" type="landuse.farmland" color="194,194,130" fill="1" layer="-3.00" shape="9088.813773,920.246071 9050.786687,904.089374 9040.448343,852.506809 8883.022382,378.913047 8862.998055,354.036781 8876.463492,341.086539 8846.452758,303.554100 8870.227129,284.730477 8894.938981,265.727331 8871.198183,215.078136 8918.167917,167.720862 8960.319636,121.200313 8987.977747,90.340654 9008.100936,68.947811 9039.062483,43.020893 9050.405876,45.449614 9062.034622,71.373731 9086.410591,164.535820 9114.664704,263.043367 9158.724907,392.074677 9221.209272,533.226867 9246.263944,624.894476 9264.461490,680.216227 9288.922071,736.040278 9331.264091,819.015465 9390.751800,939.023935 9368.476451,946.231387 9300.952990,955.698598 9249.038408,956.357967 9209.773441,950.668452 9151.974244,940.958153 9088.813773,920.246071"/>
    <poly id="129435695" type="landuse.farmland" color="194,194,130" fill="1" layer="-3.00" shape="8342.550105,252.646108 8336.176456,258.373659 8075.369187,457.359083 8073.386987,487.219692 8449.378139,617.609128 8852.838877,314.317752 8846.452758,303.554100 8873.847559,284.595704 8894.938981,265.727331 8871.198183,215.078136 8918.167917,167.720862 8960.319636,121.200313 8987.977747,90.340654 9008.100936,68.947811 9039.062483,43.020893 9053.035661,33.570993 9038.924465,-36.845328 9014.695241,-91.808529 8913.605137,-179.343681 8342.550105,252.646108"/>
    <poly id="129435722" type="landuse.farmland" color="194,194,130" fill="1" layer="-3.00" shape="7779.953573,594.318613 7595.548270,229.156407 7655.686991,202.739240 7714.711764,171.587575 7762.111874,151.138597 7843.820618,126.711042 7911.045623,96.735879 8019.993368,41.683862 8073.157750,5.366467 8129.048302,-41.129476 8139.609725,-35.667093 8338.834238,250.958675 8064.726822,457.756999 8013.144616,628.773208 7779.953573,594.318613"/>
    <poly id="129436118" type="landuse.farmland" color="194,194,130" fill="1" layer="-3.00" shape="7777.781440,594.399960 7577.219852,588.742212 7473.783365,589.692662 7368.823112,589.232610 7272.149504,593.596935 7274.054046,546.679424 7289.297459,483.549224 7310.104469,421.925053 7328.526357,385.856828 7351.290651,356.852468 7373.885113,334.981150 7392.683890,320.601629 7438.991488,303.007602 7483.674484,281.121090 7592.488482,231.475867 7777.781440,594.399960"/>
    <poly id="129436119" type="natural.wood" color="140,196,107" fill="1" layer="-4.00" shape="7263.678663,492.617681 7243.836549,538.382675 7237.235007,597.190915 7247.623991,596.243957 7249.049285,565.713241 7252.163566,543.726646 7278.010359,479.530080 7274.867965,478.913152 7263.678663,492.617681"/>
    <poly id="129436120" type="natural.wood" color="140,196,107" fill="1" layer="-4.00" shape="7289.297459,483.549224 7282.604786,484.568856 7258.458632,541.775404 7254.231316,569.460502 7256.220609,594.562595 7272.149504,593.596935 7274.054046,546.679424 7289.297459,483.549224"/>
    <poly id="129437878" type="landuse.farmland" color="194,194,130" fill="1" layer="-3.00" shape="4108.048205,645.346746 4001.416311,698.862885 4254.830826,1127.384883 4282.266700,1119.522746 4304.568730,1104.028290 4361.563221,1064.326659 4290.679085,950.474141 4108.048205,645.346746"/>
    <poly id="129437880" type="landuse.farmland" color="194,194,130" fill="1" layer="-3.00" shape="4837.284742,1100.677929 4912.454075,1032.675131 4915.392241,1013.532678 4902.009414,982.862072 4897.340499,956.681745 4879.466099,698.960562 4877.003747,659.222270 4884.906743,617.196676 4899.796412,577.388620 4907.614949,551.479468 4904.838287,536.206844 4707.531786,352.349161 4695.850774,386.757401 4695.063687,429.692810 4678.399146,493.287943 4678.008724,540.885223 4669.697416,592.447726 4677.770986,630.936741 4676.128288,645.642606 4601.715046,715.089871 4537.549117,758.825472 4471.764510,823.592078 4735.934338,1057.821547 4780.047930,1100.662438 4800.370592,1094.766583 4820.296342,1097.671901 4837.284742,1100.677929"/>
    <poly id="129437882" type="landuse.farmland" color="194,194,130" fill="1" layer="-3.00" shape="4235.384017,1174.128644 4223.057044,1169.788604 4235.677551,1129.496795 4254.830826,1127.384883 4282.266700,1119.522746 4304.568730,1104.028290 4361.563221,1064.326659 4395.005211,1043.196226 4431.170081,990.860356 4425.013836,975.070913 4415.747121,964.889962 4410.829152,944.264986 4413.311852,929.549208 4431.017636,899.141884 4465.264086,835.020062 4472.473375,829.088330 4471.764510,823.592078 4778.912142,1109.458249 4804.773751,1133.362016 4809.681519,1140.825395 4778.342246,1174.990671 4692.138946,1176.034350 4523.368282,1182.542096 4352.654684,1179.898270 4235.384017,1174.128644"/>
    <poly id="129437885" type="natural.wood" color="140,196,107" fill="1" layer="-4.00" shape="4778.912142,1109.458249 4800.537326,1099.147662 4826.747821,1107.236858 4804.773751,1133.362016 4778.912142,1109.458249"/>
    <poly id="129437886" type="landuse.farmland" color="194,194,130" fill="1" layer="-3.00" shape="4864.779946,1128.873850 4873.340628,1155.229028 5053.624092,1136.336089 5162.446886,1122.691475 5297.203060,1096.339133 5465.907100,1055.574252 5482.054563,1048.681495 5502.256611,1021.724790 5518.403201,983.051491 5574.189704,905.983896 5655.244432,834.485157 5232.706354,750.345746 5209.266379,744.988698 4947.462447,1026.956313 4967.150447,1043.033518 4993.373983,1050.388151 4989.859370,1061.211918 4962.382567,1052.735726 4940.897705,1040.668867 4864.779946,1128.873850"/>
    <poly id="129437887" type="landuse.farmland" color="194,194,130" fill="1" layer="-3.00" shape="5170.684776,760.061458 4935.345704,1017.161231 4919.151405,996.552712 4909.735318,973.782245 4895.091922,711.250085 5170.684776,760.061458"/>
    <poly id="129437888" type="landuse.farmland" color="194,194,130" fill="1" layer="-3.00" shape="3888.156726,758.425454 4001.416311,698.862885 4254.830826,1127.384883 4235.677551,1129.496795 4180.052989,1133.379867 4149.369949,1129.284374 4123.479749,1129.616177 4101.178926,1099.466244 4053.815192,1021.855940 3888.156726,758.425454"/>
    <poly id="129438253" type="landuse.farmland" color="194,194,130" fill="1" layer="-3.00" shape="3770.601294,821.495868 3777.500244,829.283034 3873.025318,985.938846 3970.251340,1121.930095 4033.189499,1130.793958 4123.479749,1129.616177 4101.178926,1099.466244 4051.335248,1006.538891 3888.156726,758.425454 3770.601294,821.495868"/>
    <poly id="129438256" type="landuse.farmland" color="194,194,130" fill="1" layer="-3.00" shape="3725.617584,1086.332501 3724.834489,1065.872709 3643.310351,1037.368161 3571.142568,1023.150018 3513.037630,1008.394036 3448.911458,987.533244 3770.601294,821.495868 3777.500244,829.283034 3873.025318,985.938846 3970.251340,1121.930095 3918.673895,1114.670449 3816.003271,1101.025069 3725.617584,1086.332501"/>
    <poly id="129438879" type="landuse.farmland" color="194,194,130" fill="1" layer="-3.00" shape="3804.648868,295.801086 4031.143400,670.166137 3914.447218,731.474029 3699.144079,364.068558 3804.648868,295.801086"/>
    <poly id="129438880" type="landuse.farmland" color="194,194,130" fill="1" layer="-3.00" shape="3581.265154,438.547232 3799.275287,786.601887 3914.447218,731.474029 3699.144079,364.068558 3581.265154,438.547232"/>
    <poly id="129438881" type="landuse.farmland" color="194,194,130" fill="1" layer="-3.00" shape="4110.177604,643.428033 4290.679085,950.474141 4361.563221,1064.326659 4395.005211,1043.196226 4431.170081,990.860356 4425.013836,975.070913 4415.747121,964.889962 4410.829152,944.264986 4217.120433,589.935920 4207.285146,591.770110 4110.177604,643.428033"/>
    <poly id="129438884" type="landuse.farmland" color="194,194,130" fill="1" layer="-3.00" shape="4692.281143,347.439891 4700.427980,356.405692 4694.870156,380.046564 4692.732676,416.441112 4682.228293,449.045184 4674.185098,480.887440 4669.341586,508.008878 4673.318634,535.384648 4671.613124,567.664881 4661.249930,603.782509 4659.284639,618.099784 4664.323543,638.330599 4611.913174,695.848809 4581.486955,713.989684 4525.030146,757.721287 4471.764510,823.592078 4465.264086,835.020062 4431.017636,899.141884 4413.311852,929.549208 4216.817404,585.760477 4686.106589,342.842116 4692.281143,347.439891"/>
    <poly id="129558282" type="landuse.industrial" color="209,209,204" fill="1" layer="-3.00" shape="7191.543122,959.144234 7174.386970,932.151137 7192.894659,921.935065 7194.560683,917.307009 7201.913013,898.178766 7221.331563,887.260474 7236.334160,881.507872 7259.320218,892.726247 7276.937048,907.408993 7292.642700,925.114407 7296.416436,937.633478 7296.445276,953.154939 7300.587814,965.660163 7308.591367,976.617366 7253.023133,969.272694 7239.409402,968.291934 7193.783511,959.973148 7191.543122,959.144234"/>
    <poly id="129715571" type="natural.wood" color="140,196,107" fill="1" layer="-4.00" shape="1822.879990,796.447740 1830.760140,762.813100 1944.591966,798.270089 1986.560212,803.597843 2004.161125,802.884675 2000.754473,835.299424 1959.727683,832.908507 1926.075585,826.636076 1879.751399,813.381306 1822.879990,796.447740"/>
    <poly id="129715574" type="natural.wood" color="140,196,107" fill="1" layer="-4.00" shape="1990.415966,886.957605 1877.025551,938.265433 1847.362586,862.985543 1854.849580,834.399605 1907.321809,843.541253 1948.616411,859.240021 1975.256961,873.667683 1990.415966,886.957605"/>
    <poly id="129715578" type="natural.wood" color="140,196,107" fill="1" layer="-4.00" shape="2252.125475,783.470603 2248.144496,749.247505 2285.806733,743.852933 2276.695874,778.469537 2252.125475,783.470603"/>
    <poly id="129715580" type="natural.wood" color="140,196,107" fill="1" layer="-4.00" shape="2543.861465,889.042932 2583.520121,870.678323 2594.077890,879.280768 2667.006918,942.264280 2633.456126,947.809568 2543.861465,889.042932"/>
    <poly id="129715583" type="natural.wood" color="140,196,107" fill="1" layer="-4.00" shape="2007.353621,833.474397 2011.410943,803.027867 2057.370284,796.743180 2104.497275,784.021816 2171.120514,768.109844 2239.958966,749.852754 2247.012020,783.912816 2180.749277,798.351049 2095.885713,819.488170 2065.162711,826.888061 2027.382244,832.745502 2007.353621,833.474397"/>
    <poly id="131741234" type="natural.wood" color="140,196,107" fill="1" layer="-4.00" shape="3006.305264,1015.130401 3009.236169,995.986651 3016.550880,995.338154 3175.413185,1013.792182 3172.515027,1019.549288 3098.371811,1014.333546 3037.394919,1012.655437 3006.305264,1015.130401"/>
    <poly id="131741236" type="natural.wood" color="140,196,107" fill="1" layer="-4.00" shape="3012.383308,968.048422 3011.681025,949.768085 3036.128403,955.822246 3087.667084,964.822712 3163.976627,978.874969 3161.525830,986.663898 3125.324407,980.358861 3069.095768,973.375550 3012.383308,968.048422"/>
    <poly id="133207792" type="man_made.pipeline" color="255,230,230" fill="0" layer="-1.00" shape="12907.720152,7774.665873 12443.611172,7176.768479 12402.524951,7139.044247 12391.028402,7128.385926 12089.643997,6847.237709 12065.000733,6822.163672 11814.944804,6507.515076 11452.334834,6070.056186 11336.481490,5938.773640 11251.083575,5832.416661 11153.180037,5718.871889 11106.771057,5634.998888 11030.024896,5501.502617 11006.540945,5463.340428 10959.752747,5384.504359 10931.645764,5326.993478 10907.230910,5278.822350 10856.434051,5174.758531 10811.488936,5085.255226 10645.407038,4760.678654 10550.766334,4565.794403 10457.565729,4373.630968 10281.772401,4018.111715 10228.192891,3917.451913 10166.508012,3786.593945 10102.468515,3661.825480 10070.387667,3597.728979 9994.877845,3442.453444 9939.589801,3333.252122 9889.325772,3232.027049 9826.986915,3112.732505 9667.483533,2789.063071 9662.109932,2776.167675 9656.729479,2763.272537 9509.789600,2239.290295 8770.904548,992.988004 8764.082561,978.220967 8628.003968,643.238602 8521.313905,416.587308 8399.815835,181.248318 8251.738348,-100.386468 8160.779713,-265.162266 7886.889634,-778.740747 7665.433538,-1049.252924 7650.661923,-1066.939052 7580.146248,-1144.103078 7559.202141,-1168.906897 7280.928900,-1495.010584 7189.481533,-1606.448992 6904.260038,-1928.231289 6561.413026,-2405.983685"/>
    <poly id="133213587" type="man_made.pipeline" color="255,230,230" fill="0" layer="-1.00" shape="10128.359714,4820.861479 10017.898501,4548.515871 9919.468937,4306.403083 9507.447942,3361.206101 9380.356143,3079.144649 9098.213415,2454.125347 8718.450589,1476.311506 8505.488157,1025.019725 8265.033009,544.040224 8132.606951,270.075579 8024.905214,57.601593 7408.249640,-936.936214 7152.951292,-1302.689382 6777.349265,-1901.844758 6713.924681,-2036.689225 6557.700724,-2357.527902 6545.503763,-2376.978422"/>
    <poly id="133279546" type="man_made.pipeline" color="255,230,230" fill="0" layer="-1.00" shape="12700.088083,7920.697391 12116.029736,7309.554101 11531.439831,6665.554770 11123.137015,6192.931396 10687.361936,5673.961695 10583.546758,5545.858376 10519.932213,5539.590472 10396.028423,5396.555105 10361.600175,5356.951982 10264.321893,5245.059111 10216.831043,5188.424974 9722.970212,4660.667702 9536.462537,4454.990674 9091.780101,3982.641052 9075.028237,3963.221536 9059.074840,3942.302510 8991.634217,3841.480275 8946.707665,3780.106833 8845.280522,3632.660434 8796.458874,3559.318334 8521.772184,3148.513296 8301.068347,2804.463032 8166.883784,2578.123998 8072.377702,2433.583366 7769.257773,1992.687618 7676.051418,1854.941676 7317.361419,1388.292541 7121.662549,1081.641653 7052.929692,973.006464 6442.276413,775.670153 6423.364428,702.444758 6067.295390,543.180157 5975.327710,506.892362 5101.895584,135.854950 4850.702379,26.185593 4535.753128,-110.452344 4463.178983,-146.494606 4111.581308,-357.866892 4057.074242,-401.141122 3449.169194,-633.442330 2980.285011,-725.256479 2709.852942,-846.678654 2254.589065,-1172.614586"/>
    <poly id="137223764" type="waterway.stream" color="181,209,209" fill="0" layer="-4.00" shape="2298.990530,997.577924 2308.601666,1046.194290"/>
    <poly id="137223766" type="waterway.stream" color="181,209,209" fill="0" layer="-4.00" shape="2335.535434,987.026220 2329.951482,1040.371042"/>
    <poly id="137223767" type="waterway.stream" color="181,209,209" fill="0" layer="-4.00" shape="2284.756213,805.308114 2278.198851,835.004398 2266.091478,904.191194 2298.990530,997.577924"/>
    <poly id="141129925" type="building.yes" color="255,230,230" fill="1" layer="-1.00" shape="1345.094255,796.977413 1346.045422,796.985098 1346.154742,799.453068 1351.897365,798.829636 1352.060944,800.226441 1363.170206,799.339384 1362.711326,792.263494 1354.294939,792.912568 1354.190200,792.504593 1347.640210,792.947723 1347.593146,793.851567 1345.028743,794.051167 1345.094255,796.977413"/>