<?xml version="1.0" encoding="UTF-8"?>

<!-- generated on 2022-04-22 14:50:57 by Eclipse SUMO netconvert Version 1.10.0
<configuration xmlns:xsi="http://www.w3.org/2001/XMLSchema-instance" xsi:noNamespaceSchemaLocation="http://sumo.dlr.de/xsd/netconvertConfiguration.xsd">

    <input>
        <type-files value="C:\Users\William\src\sumo-1.10.0\data\typemap\osmNetconvert.typ.xml"/>
        <osm-files value="osm_bbox.osm.xml"/>
    </input>

    <output>
        <output-file value="osm.net.xml"/>
        <output.street-names value="true"/>
        <output.original-names value="true"/>
    </output>

    <projection>
        <proj.utm value="true"/>
    </projection>

    <processing>
        <geometry.remove value="true"/>
        <roundabouts.guess value="true"/>
        <lefthand value="true"/>
    </processing>

    <tls_building>
        <tls.discard-simple value="true"/>
        <tls.join value="true"/>
        <tls.guess-signals value="true"/>
        <tls.default-type value="actuated"/>
    </tls_building>

    <ramp_guessing>
        <ramps.guess value="true"/>
    </ramp_guessing>

    <junctions>
        <junctions.join value="true"/>
        <junctions.corner-detail value="5"/>
    </junctions>

    <report>
        <verbose value="true"/>
        <aggregate-warnings value="5"/>
    </report>

</configuration>
-->

<net version="1.9" junctionCornerDetail="5" lefthand="true" limitTurnSpeed="5.50" xmlns:xsi="http://www.w3.org/2001/XMLSchema-instance" xsi:noNamespaceSchemaLocation="http://sumo.dlr.de/xsd/net_file.xsd">

    <location netOffset="-306865.06,-5787540.24" convBoundary="0.00,-0.00,9535.41,3103.94" origBoundary="0.171754,52.205381,0.312257,52.242396" projParameter="+proj=utm +zone=31 +ellps=WGS84 +datum=WGS84 +units=m +no_defs"/>

    <type id="highway.bridleway" priority="1" numLanes="1" speed="2.78" allow="pedestrian" oneway="1" width="2.00"/>
    <type id="highway.bus_guideway" priority="1" numLanes="1" speed="27.78" allow="bus" oneway="1"/>
    <type id="highway.cycleway" priority="1" numLanes="1" speed="8.33" allow="bicycle" oneway="0" width="1.00"/>
    <type id="highway.footway" priority="1" numLanes="1" speed="2.78" allow="pedestrian" oneway="1" width="2.00"/>
    <type id="highway.ford" priority="1" numLanes="1" speed="2.78" allow="army" oneway="0"/>
    <type id="highway.living_street" priority="2" numLanes="1" speed="2.78" disallow="tram rail_urban rail rail_electric rail_fast ship" oneway="0"/>
    <type id="highway.motorway" priority="14" numLanes="2" speed="39.44" allow="private emergency authority army vip passenger hov taxi bus coach delivery truck trailer motorcycle evehicle custom1 custom2" oneway="1"/>
    <type id="highway.motorway_link" priority="9" numLanes="1" speed="22.22" allow="private emergency authority army vip passenger hov taxi bus coach delivery truck trailer motorcycle evehicle custom1 custom2" oneway="1"/>
    <type id="highway.path" priority="1" numLanes="1" speed="2.78" allow="pedestrian bicycle" oneway="0" width="2.00"/>
    <type id="highway.pedestrian" priority="1" numLanes="1" speed="2.78" allow="pedestrian" oneway="1" width="2.00"/>
    <type id="highway.primary" priority="12" numLanes="2" speed="27.78" disallow="tram rail_urban rail rail_electric rail_fast ship" oneway="0"/>
    <type id="highway.primary_link" priority="7" numLanes="1" speed="22.22" disallow="tram rail_urban rail rail_electric rail_fast ship" oneway="0"/>
    <type id="highway.raceway" priority="15" numLanes="2" speed="83.33" allow="vip" oneway="0"/>
    <type id="highway.residential" priority="3" numLanes="1" speed="13.89" disallow="tram rail_urban rail rail_electric rail_fast ship" oneway="0"/>
    <type id="highway.secondary" priority="11" numLanes="1" speed="27.78" disallow="tram rail_urban rail rail_electric rail_fast ship" oneway="0"/>
    <type id="highway.secondary_link" priority="6" numLanes="1" speed="22.22" disallow="tram rail_urban rail rail_electric rail_fast ship" oneway="0"/>
    <type id="highway.service" priority="1" numLanes="1" speed="5.56" allow="pedestrian delivery bicycle" oneway="0"/>
    <type id="highway.stairs" priority="1" numLanes="1" speed="1.39" allow="pedestrian" oneway="1" width="2.00"/>
    <type id="highway.step" priority="1" numLanes="1" speed="1.39" allow="pedestrian" oneway="1" width="2.00"/>
    <type id="highway.steps" priority="1" numLanes="1" speed="1.39" allow="pedestrian" oneway="1" width="2.00"/>
    <type id="highway.tertiary" priority="10" numLanes="1" speed="22.22" disallow="tram rail_urban rail rail_electric rail_fast ship" oneway="0"/>
    <type id="highway.tertiary_link" priority="5" numLanes="1" speed="22.22" disallow="tram rail_urban rail rail_electric rail_fast ship" oneway="0"/>
    <type id="highway.track" priority="1" numLanes="1" speed="5.56" allow="pedestrian motorcycle moped bicycle" oneway="0"/>
    <type id="highway.trunk" priority="13" numLanes="2" speed="27.78" disallow="pedestrian bicycle tram rail_urban rail rail_electric rail_fast ship" oneway="0"/>
    <type id="highway.trunk_link" priority="8" numLanes="1" speed="22.22" disallow="pedestrian bicycle tram rail_urban rail rail_electric rail_fast ship" oneway="0"/>
    <type id="highway.unclassified" priority="4" numLanes="1" speed="13.89" disallow="tram rail_urban rail rail_electric rail_fast ship" oneway="0"/>
    <type id="highway.unsurfaced" priority="1" numLanes="1" speed="8.33" disallow="tram rail_urban rail rail_electric rail_fast ship" oneway="0"/>
    <type id="railway.highspeed" priority="21" numLanes="1" speed="69.44" allow="rail_fast" oneway="1"/>
    <type id="railway.light_rail" priority="19" numLanes="1" speed="27.78" allow="rail_urban" oneway="1"/>
    <type id="railway.preserved" priority="16" numLanes="1" speed="27.78" allow="rail" oneway="1"/>
    <type id="railway.rail" priority="20" numLanes="1" speed="44.44" allow="rail" oneway="1"/>
    <type id="railway.subway" priority="18" numLanes="1" speed="27.78" allow="rail_urban" oneway="1"/>
    <type id="railway.tram" priority="17" numLanes="1" speed="13.89" allow="tram" oneway="1"/>

    <edge id=":1115631136_0" function="internal">
        <lane id=":1115631136_0_0" index="0" disallow="tram rail_urban rail rail_electric rail_fast ship" speed="26.82" length="9.50" shape="6305.44,1163.02 6304.70,1153.55"/>
    </edge>
    <edge id=":1115631136_1" function="internal">
        <lane id=":1115631136_1_0" index="0" allow="pedestrian delivery bicycle" speed="6.76" length="5.22" shape="6305.44,1163.02 6304.78,1160.05 6303.47,1158.32"/>
    </edge>
    <edge id=":1115631136_2" function="internal">
        <lane id=":1115631136_2_0" index="0" disallow="tram rail_urban rail rail_electric rail_fast ship" speed="3.65" length="2.34" shape="6305.44,1163.02 6304.55,1161.88 6303.72,1161.54"/>
    </edge>
    <edge id=":1115631136_9" function="internal">
        <lane id=":1115631136_9_0" index="0" allow="pedestrian delivery bicycle" speed="6.76" length="5.66" shape="6303.47,1158.32 6303.34,1158.14 6301.09,1157.29 6298.06,1157.50"/>
    </edge>
    <edge id=":1115631136_10" function="internal">
        <lane id=":1115631136_10_0" index="0" disallow="tram rail_urban rail rail_electric rail_fast ship" speed="3.65" length="2.34" shape="6303.72,1161.54 6302.96,1162.00 6302.25,1163.26"/>
    </edge>
    <edge id=":1115631136_3" function="internal">
        <lane id=":1115631136_3_0" index="0" allow="pedestrian delivery bicycle" speed="4.90" length="5.17" shape="6298.74,1160.63 6300.18,1160.53 6301.25,1160.94 6301.94,1161.84 6302.25,1163.26"/>
    </edge>
    <edge id=":1115631136_4" function="internal">
        <lane id=":1115631136_4_0" index="0" allow="pedestrian delivery bicycle" speed="7.23" length="10.27" shape="6298.74,1160.63 6301.52,1159.67 6303.45,1158.17 6304.51,1156.13 6304.70,1153.55"/>
    </edge>
    <edge id=":1115631136_5" function="internal">
        <lane id=":1115631136_5_0" index="0" allow="pedestrian delivery bicycle" speed="3.65" length="4.67" shape="6298.74,1160.63 6299.74,1159.60 6299.96,1158.73 6299.40,1158.03 6298.06,1157.50"/>
    </edge>
    <edge id=":1115631136_6" function="internal">
        <lane id=":1115631136_6_0" index="0" allow="pedestrian delivery bicycle" speed="5.52" length="5.59" shape="6301.51,1153.81 6301.39,1155.13 6300.77,1156.18 6299.66,1156.97 6298.06,1157.50"/>
    </edge>
    <edge id=":1115631136_7" function="internal">
        <lane id=":1115631136_7_0" index="0" disallow="tram rail_urban rail rail_electric rail_fast ship" speed="26.82" length="9.47" shape="6301.51,1153.81 6302.25,1163.26"/>
    </edge>
    <edge id=":1115631136_8" function="internal">
        <lane id=":1115631136_8_0" index="0" disallow="tram rail_urban rail rail_electric rail_fast ship" speed="3.65" length="2.34" shape="6301.51,1153.81 6302.41,1154.94 6303.24,1155.28"/>
    </edge>
    <edge id=":1115631136_11" function="internal">
        <lane id=":1115631136_11_0" index="0" disallow="tram rail_urban rail rail_electric rail_fast ship" speed="3.65" length="2.34" shape="6303.24,1155.28 6304.00,1154.81 6304.70,1153.55"/>
    </edge>
    <edge id=":1367909413_0" function="internal">
        <lane id=":1367909413_0_0" index="0" allow="pedestrian delivery bicycle" speed="3.65" length="4.67" shape="1759.91,754.71 1758.50,754.42 1757.65,754.70 1757.36,755.55 1757.63,756.96"/>
    </edge>
    <edge id=":1367909415_0" function="internal">
        <lane id=":1367909415_0_0" index="0" allow="pedestrian delivery bicycle" speed="5.31" length="5.18" shape="1768.56,788.34 1767.96,789.68 1767.12,790.57 1766.03,790.99 1764.71,790.95"/>
    </edge>
    <edge id=":1367909415_1" function="internal">
        <lane id=":1367909415_1_0" index="0" allow="pedestrian delivery bicycle" speed="6.85" length="10.21" shape="1768.56,788.34 1768.13,791.10 1768.69,793.34 1770.25,795.04 1772.80,796.20"/>
    </edge>
    <edge id=":1367909415_2" function="internal">
        <lane id=":1367909415_2_0" index="0" allow="pedestrian delivery bicycle" speed="3.65" length="4.67" shape="1768.56,788.34 1768.97,789.72 1769.62,790.33 1770.50,790.18 1771.62,789.27"/>
    </edge>
    <edge id=":1367909415_3" function="internal">
        <lane id=":1367909415_3_0" index="0" allow="pedestrian delivery bicycle" speed="5.03" length="5.01" shape="1773.70,793.13 1772.45,792.56 1771.68,791.72 1771.41,790.63 1771.62,789.27"/>
    </edge>
    <edge id=":1367909415_4" function="internal">
        <lane id=":1367909415_4_0" index="0" disallow="tram rail_urban rail rail_electric rail_fast ship" speed="22.35" length="9.25" shape="1773.70,793.13 1771.06,792.36 1769.25,791.87 1767.41,791.47 1764.71,790.95"/>
    </edge>
    <edge id=":1367909415_5" function="internal">
        <lane id=":1367909415_5_0" index="0" disallow="tram rail_urban rail rail_electric rail_fast ship" speed="3.65" length="2.34" shape="1773.70,793.13 1772.32,793.56 1771.71,794.21"/>
    </edge>
    <edge id=":1367909415_9" function="internal">
        <lane id=":1367909415_9_0" index="0" disallow="tram rail_urban rail rail_electric rail_fast ship" speed="3.65" length="2.34" shape="1771.71,794.21 1771.87,795.09 1772.80,796.20"/>
    </edge>
    <edge id=":1367909415_6" function="internal">
        <lane id=":1367909415_6_0" index="0" disallow="tram rail_urban rail rail_electric rail_fast ship" speed="22.35" length="8.93" shape="1764.12,794.10 1766.73,794.59 1768.50,794.98 1770.25,795.45 1772.80,796.20"/>
    </edge>
    <edge id=":1367909415_7" function="internal">
        <lane id=":1367909415_7_0" index="0" allow="pedestrian delivery bicycle" speed="7.07" length="4.86" shape="1764.12,794.10 1766.73,794.20 1768.85,793.42"/>
    </edge>
    <edge id=":1367909415_8" function="internal">
        <lane id=":1367909415_8_0" index="0" disallow="tram rail_urban rail rail_electric rail_fast ship" speed="3.65" length="2.34" shape="1764.12,794.10 1765.45,793.53 1765.99,792.82"/>
    </edge>
    <edge id=":1367909415_10" function="internal">
        <lane id=":1367909415_10_0" index="0" allow="pedestrian delivery bicycle" speed="7.07" length="5.07" shape="1768.85,793.42 1770.48,791.78 1771.62,789.27"/>
    </edge>
    <edge id=":1367909415_11" function="internal">
        <lane id=":1367909415_11_0" index="0" disallow="tram rail_urban rail rail_electric rail_fast ship" speed="3.65" length="2.34" shape="1765.99,792.82 1765.75,791.96 1764.71,790.95"/>
    </edge>
    <edge id=":1367909417_0" function="internal">
        <lane id=":1367909417_0_0" index="0" allow="pedestrian delivery bicycle" speed="5.56" length="5.09" shape="2287.38,784.60 2285.87,784.51 2284.84,784.46 2283.80,784.47 2282.29,784.56"/>
    </edge>
    <edge id=":1367909417_1" function="internal">
        <lane id=":1367909417_1_0" index="0" allow="pedestrian delivery bicycle" speed="3.65" length="4.67" shape="2287.38,784.60 2286.14,785.33 2285.70,786.11 2286.06,786.93 2287.22,787.79"/>
    </edge>
    <edge id=":1367909417_2" function="internal">
        <lane id=":1367909417_2_0" index="0" allow="pedestrian delivery bicycle" speed="5.56" length="4.71" shape="2282.52,787.75 2283.91,787.67 2284.87,787.66 2285.82,787.71 2287.22,787.79"/>
    </edge>
    <edge id=":1367909417_3" function="internal">
        <lane id=":1367909417_3_0" index="0" allow="pedestrian delivery bicycle" speed="3.65" length="4.67" shape="2282.52,787.75 2283.66,786.87 2284.00,786.04 2283.55,785.27 2282.29,784.56"/>
    </edge>
    <edge id=":1367909431_0" function="internal">
        <lane id=":1367909431_0_0" index="0" allow="pedestrian delivery bicycle" speed="4.97" length="5.08" shape="2310.52,783.74 2310.05,785.07 2309.27,785.89 2308.18,786.22 2306.79,786.05"/>
    </edge>
    <edge id=":1367909431_1" function="internal">
        <lane id=":1367909431_1_0" index="0" allow="pedestrian delivery bicycle" speed="5.56" length="9.75" shape="2310.52,783.74 2310.28,786.52 2310.76,788.83 2311.97,790.69 2313.91,792.08"/>
    </edge>
    <edge id=":1367909431_2" function="internal">
        <lane id=":1367909431_2_0" index="0" allow="pedestrian delivery bicycle" speed="3.65" length="4.67" shape="2310.52,783.74 2311.07,785.08 2311.77,785.63 2312.64,785.40 2313.66,784.38"/>
    </edge>
    <edge id=":1367909431_3" function="internal">
        <lane id=":1367909431_3_0" index="0" allow="pedestrian delivery bicycle" speed="5.56" length="5.55" shape="2315.35,789.23 2314.34,788.46 2313.71,787.40 2313.49,786.04 2313.66,784.38"/>
    </edge>
    <edge id=":1367909431_4" function="internal">
        <lane id=":1367909431_4_0" index="0" allow="pedestrian delivery bicycle" speed="5.56" length="9.16" shape="2315.35,789.23 2312.91,788.03 2311.19,787.31 2309.41,786.76 2306.79,786.05"/>
    </edge>
    <edge id=":1367909431_5" function="internal">
        <lane id=":1367909431_5_0" index="0" allow="pedestrian delivery bicycle" speed="3.65" length="4.67" shape="2315.35,789.23 2313.92,789.40 2313.20,789.93 2313.20,790.83 2313.91,792.08"/>
    </edge>
    <edge id=":1367909431_6" function="internal">
        <lane id=":1367909431_6_0" index="0" allow="pedestrian delivery bicycle" speed="5.56" length="8.51" shape="2305.95,789.14 2308.39,789.79 2310.05,790.31 2311.65,790.97 2313.91,792.08"/>
    </edge>
    <edge id=":1367909431_7" function="internal">
        <lane id=":1367909431_7_0" index="0" allow="pedestrian delivery bicycle" speed="5.56" length="10.49" shape="2305.95,789.14 2308.83,789.49 2311.07,788.81 2312.68,787.11 2313.66,784.38"/>
    </edge>
    <edge id=":1367909431_8" function="internal">
        <lane id=":1367909431_8_0" index="0" allow="pedestrian delivery bicycle" speed="3.65" length="4.67" shape="2305.95,789.14 2307.32,788.68 2307.91,788.01 2307.74,787.13 2306.79,786.05"/>
    </edge>
    <edge id=":1367909437_0" function="internal">
        <lane id=":1367909437_0_0" index="0" allow="pedestrian motorcycle moped bicycle" speed="3.65" length="4.67" shape="2254.22,820.24 2255.14,821.35 2255.98,821.67 2256.73,821.18 2257.40,819.91"/>
    </edge>
    <edge id=":1367909438_0" function="internal">
        <lane id=":1367909438_0_0" index="0" allow="pedestrian motorcycle moped bicycle" speed="3.65" length="4.67" shape="2310.88,819.93 2311.51,821.23 2312.26,821.73 2313.10,821.43 2314.05,820.35"/>
    </edge>
    <edge id=":1367909440_0" function="internal">
        <lane id=":1367909440_0_0" index="0" disallow="tram rail_urban rail rail_electric rail_fast ship" speed="22.35" length="8.71" shape="2498.14,842.17 2489.77,840.27"/>
        <lane id=":1367909440_0_1" index="1" disallow="tram rail_urban rail rail_electric rail_fast ship" speed="22.35" length="8.71" shape="2497.57,845.32 2488.97,843.37"/>
    </edge>
    <edge id=":1367909440_2" function="internal">
        <lane id=":1367909440_2_0" index="0" allow="pedestrian delivery bicycle" speed="7.99" length="3.66" shape="2497.57,845.32 2495.18,845.49 2494.12,846.18"/>
    </edge>
    <edge id=":1367909440_3" function="internal">
        <lane id=":1367909440_3_0" index="0" disallow="tram rail_urban rail rail_electric rail_fast ship" speed="3.65" length="2.34" shape="2497.57,845.32 2496.25,845.90 2495.71,846.61"/>
    </edge>
    <edge id=":1367909440_11" function="internal">
        <lane id=":1367909440_11_0" index="0" allow="pedestrian delivery bicycle" speed="7.99" length="8.82" shape="2494.12,846.18 2493.02,846.90 2491.10,849.54 2489.42,853.43"/>
    </edge>
    <edge id=":1367909440_12" function="internal">
        <lane id=":1367909440_12_0" index="0" disallow="tram rail_urban rail rail_electric rail_fast ship" speed="3.65" length="2.34" shape="2495.71,846.61 2495.97,847.47 2497.00,848.47"/>
    </edge>
    <edge id=":1367909440_4" function="internal">
        <lane id=":1367909440_4_0" index="0" allow="pedestrian delivery bicycle" speed="5.49" length="5.41" shape="2492.44,854.48 2493.13,853.04 2494.03,852.08 2495.13,851.61 2496.44,851.62"/>
    </edge>
    <edge id=":1367909440_5" function="internal">
        <lane id=":1367909440_5_0" index="0" allow="pedestrian delivery bicycle" speed="7.58" length="13.38" shape="2492.44,854.48 2493.44,850.27 2493.20,847.02 2491.70,844.72 2488.97,843.37"/>
    </edge>
    <edge id=":1367909440_6" function="internal">
        <lane id=":1367909440_6_0" index="0" allow="pedestrian delivery bicycle" speed="3.65" length="4.67" shape="2492.44,854.48 2492.08,853.08 2491.46,852.44 2490.57,852.56 2489.42,853.43"/>
    </edge>
    <edge id=":1367909440_7" function="internal">
        <lane id=":1367909440_7_0" index="0" allow="pedestrian delivery bicycle" speed="4.96" length="5.10" shape="2487.35,849.56 2488.65,850.11 2489.43,850.94 2489.69,852.04 2489.42,853.43"/>
    </edge>
    <edge id=":1367909440_8" function="internal">
        <lane id=":1367909440_8_0" index="0" disallow="tram rail_urban rail rail_electric rail_fast ship" speed="22.35" length="9.19" shape="2487.35,849.56 2496.44,851.62"/>
        <lane id=":1367909440_8_1" index="1" disallow="tram rail_urban rail rail_electric rail_fast ship" speed="22.35" length="9.19" shape="2488.16,846.47 2497.00,848.47"/>
    </edge>
    <edge id=":1367909440_10" function="internal">
        <lane id=":1367909440_10_0" index="0" disallow="tram rail_urban rail rail_electric rail_fast ship" speed="3.65" length="2.34" shape="2488.16,846.47 2489.52,845.99 2490.11,845.32"/>
    </edge>
    <edge id=":1367909440_13" function="internal">
        <lane id=":1367909440_13_0" index="0" disallow="tram rail_urban rail rail_electric rail_fast ship" speed="3.65" length="2.34" shape="2490.11,845.32 2489.93,844.45 2488.97,843.37"/>
    </edge>
    <edge id=":1367909446_0" function="internal">
        <lane id=":1367909446_0_0" index="0" allow="pedestrian delivery bicycle" speed="3.65" length="4.67" shape="2483.90,869.35 2484.27,870.75 2484.89,871.39 2485.78,871.27 2486.93,870.40"/>
    </edge>
    <edge id=":1367909485_0" function="internal">
        <lane id=":1367909485_0_0" index="0" disallow="tram rail_urban rail rail_electric rail_fast ship" speed="22.35" length="3.15" shape="3004.55,1168.02 3007.34,1169.65"/>
        <lane id=":1367909485_0_1" index="1" disallow="tram rail_urban rail rail_electric rail_fast ship" speed="22.35" length="3.15" shape="3006.23,1165.30 3008.89,1166.84"/>
    </edge>
    <edge id=":1367909485_2" function="internal">
        <lane id=":1367909485_2_0" index="0" disallow="tram rail_urban rail rail_electric rail_fast ship" speed="6.80" length="2.54" shape="3003.96,1170.79 3004.33,1171.43 3004.68,1171.81 3005.13,1172.09 3005.80,1172.45"/>
    </edge>
    <edge id=":1367909488_0" function="internal">
        <lane id=":1367909488_0_0" index="0" disallow="tram rail_urban rail rail_electric rail_fast ship" speed="22.35" length="3.22" shape="2996.95,1177.41 2997.02,1176.46 2997.09,1175.81 2997.20,1175.17 2997.39,1174.23"/>
    </edge>
    <edge id=":1367909488_1" function="internal">
        <lane id=":1367909488_1_0" index="0" disallow="tram rail_urban rail rail_electric rail_fast ship" speed="22.35" length="3.23" shape="2993.76,1177.17 2993.82,1176.22 2993.85,1175.56 2993.83,1174.91 2993.76,1173.95"/>
    </edge>
    <edge id=":1397635247_0" function="internal">
        <lane id=":1397635247_0_0" index="0" allow="delivery bicycle" speed="6.30" length="6.83" shape="4939.36,1020.96 4938.05,1021.98 4936.57,1022.41 4934.92,1022.25 4933.11,1021.49"/>
    </edge>
    <edge id=":1397635247_1" function="internal">
        <lane id=":1397635247_1_0" index="0" disallow="tram rail_urban rail rail_electric rail_fast ship" speed="22.22" length="10.45" shape="4939.36,1020.96 4932.23,1028.60"/>
    </edge>
    <edge id=":1397635247_2" function="internal">
        <lane id=":1397635247_2_0" index="0" allow="delivery bicycle" speed="6.82" length="3.32" shape="4939.36,1020.96 4937.72,1023.32 4937.63,1023.75"/>
    </edge>
    <edge id=":1397635247_3" function="internal">
        <lane id=":1397635247_3_0" index="0" disallow="tram rail_urban rail rail_electric rail_fast ship" speed="3.65" length="2.34" shape="4939.36,1020.96 4939.13,1022.38 4939.44,1023.22"/>
    </edge>
    <edge id=":1397635247_16" function="internal">
        <lane id=":1397635247_16_0" index="0" allow="delivery bicycle" speed="6.82" length="7.10" shape="4937.63,1023.75 4937.26,1025.60 4937.99,1027.82 4939.89,1029.97"/>
    </edge>
    <edge id=":1397635247_17" function="internal">
        <lane id=":1397635247_17_0" index="0" disallow="tram rail_urban rail rail_electric rail_fast ship" speed="3.65" length="2.34" shape="4939.44,1023.22 4940.30,1023.48 4941.70,1023.15"/>
    </edge>
    <edge id=":1397635247_4" function="internal">
        <lane id=":1397635247_4_0" index="0" allow="delivery bicycle" speed="4.99" length="5.06" shape="4941.96,1027.52 4941.03,1026.48 4940.68,1025.40 4940.90,1024.29 4941.70,1023.15"/>
    </edge>
    <edge id=":1397635247_5" function="internal">
        <lane id=":1397635247_5_0" index="0" allow="delivery bicycle" speed="5.56" length="10.74" shape="4941.96,1027.52 4939.58,1025.56 4937.74,1024.21 4935.80,1023.01 4933.11,1021.49"/>
    </edge>
    <edge id=":1397635247_6" function="internal">
        <lane id=":1397635247_6_0" index="0" allow="delivery bicycle" speed="7.25" length="11.04" shape="4941.96,1027.52 4939.52,1026.05 4937.09,1025.73 4934.66,1026.59 4932.23,1028.60"/>
    </edge>
    <edge id=":1397635247_7" function="internal">
        <lane id=":1397635247_7_0" index="0" allow="delivery bicycle" speed="3.65" length="4.67" shape="4941.96,1027.52 4940.53,1027.36 4939.70,1027.71 4939.49,1028.58 4939.89,1029.97"/>
    </edge>
    <edge id=":1397635247_8" function="internal">
        <lane id=":1397635247_8_0" index="0" allow="delivery bicycle" speed="5.56" length="6.06" shape="4934.57,1030.79 4935.94,1029.62 4937.29,1029.09 4938.60,1029.21 4939.89,1029.97"/>
    </edge>
    <edge id=":1397635247_9" function="internal">
        <lane id=":1397635247_9_0" index="0" disallow="tram rail_urban rail rail_electric rail_fast ship" speed="22.22" length="10.45" shape="4934.57,1030.79 4941.70,1023.15"/>
    </edge>
    <edge id=":1397635247_10" function="internal">
        <lane id=":1397635247_10_0" index="0" allow="delivery bicycle" speed="6.71" length="3.26" shape="4934.57,1030.79 4936.43,1028.11"/>
    </edge>
    <edge id=":1397635247_11" function="internal">
        <lane id=":1397635247_11_0" index="0" disallow="tram rail_urban rail rail_electric rail_fast ship" speed="3.65" length="2.34" shape="4934.57,1030.79 4934.80,1029.36 4934.49,1028.52"/>
    </edge>
    <edge id=":1397635247_18" function="internal">
        <lane id=":1397635247_18_0" index="0" allow="delivery bicycle" speed="6.71" length="8.20" shape="4936.43,1028.11 4936.81,1025.67 4935.70,1023.46 4933.11,1021.49"/>
    </edge>
    <edge id=":1397635247_19" function="internal">
        <lane id=":1397635247_19_0" index="0" disallow="tram rail_urban rail rail_electric rail_fast ship" speed="3.65" length="2.34" shape="4934.49,1028.52 4933.63,1028.27 4932.23,1028.60"/>
    </edge>
    <edge id=":1397635247_12" function="internal">
        <lane id=":1397635247_12_0" index="0" allow="delivery bicycle" speed="4.82" length="5.32" shape="4931.55,1024.29 4932.75,1025.20 4933.27,1026.23 4933.09,1027.36 4932.23,1028.60"/>
    </edge>
    <edge id=":1397635247_13" function="internal">
        <lane id=":1397635247_13_0" index="0" allow="delivery bicycle" speed="5.56" length="10.12" shape="4931.55,1024.29 4934.16,1025.75 4935.93,1026.83 4937.59,1028.06 4939.89,1029.97"/>
    </edge>
    <edge id=":1397635247_14" function="internal">
        <lane id=":1397635247_14_0" index="0" allow="delivery bicycle" speed="7.86" length="11.12" shape="4931.55,1024.29 4934.43,1025.46 4937.08,1025.66 4939.50,1024.89 4941.70,1023.15"/>
    </edge>
    <edge id=":1397635247_15" function="internal">
        <lane id=":1397635247_15_0" index="0" allow="delivery bicycle" speed="3.65" length="4.67" shape="4931.55,1024.29 4932.99,1024.17 4933.73,1023.67 4933.77,1022.77 4933.11,1021.49"/>
    </edge>
    <edge id=":1397675893_0" function="internal">
        <lane id=":1397675893_0_0" index="0" allow="pedestrian motorcycle moped bicycle" speed="3.65" length="4.67" shape="3442.81,984.18 3442.12,985.44 3442.13,986.34 3442.85,986.86 3444.29,987.02"/>
    </edge>
    <edge id=":1397675923_0" function="internal">
        <lane id=":1397675923_0_0" index="0" allow="delivery bicycle" speed="3.65" length="4.67" shape="5343.43,353.60 5344.00,352.27 5343.90,351.39 5343.13,350.93 5341.69,350.91"/>
    </edge>
    <edge id=":1397675934_0" function="internal">
        <lane id=":1397675934_0_0" index="0" allow="pedestrian motorcycle moped bicycle" speed="3.65" length="4.67" shape="4698.24,333.81 4698.93,332.55 4698.92,331.66 4698.20,331.13 4696.76,330.98"/>
    </edge>
    <edge id=":1415490410_0" function="internal">
        <lane id=":1415490410_0_0" index="0" allow="pedestrian motorcycle moped bicycle" speed="3.65" length="4.67" shape="6095.88,1241.34 6096.82,1242.43 6097.67,1242.73 6098.41,1242.23 6099.06,1240.95"/>
    </edge>
    <edge id=":1415490413_0" function="internal">
        <lane id=":1415490413_0_0" index="0" allow="pedestrian motorcycle moped bicycle" speed="3.65" length="4.67" shape="6090.88,1161.85 6090.07,1160.66 6089.27,1160.27 6088.47,1160.67 6087.68,1161.88"/>
    </edge>
    <edge id=":1415500830_0" function="internal">
        <lane id=":1415500830_0_0" index="0" disallow="tram rail_urban rail rail_electric rail_fast ship" speed="26.82" length="10.81" shape="8267.73,964.58 8256.89,963.43"/>
        <lane id=":1415500830_0_1" index="1" disallow="tram rail_urban rail rail_electric rail_fast ship" speed="26.82" length="10.81" shape="8267.36,967.76 8256.71,966.63"/>
    </edge>
    <edge id=":1415500830_2" function="internal">
        <lane id=":1415500830_2_0" index="0" allow="pedestrian delivery bicycle" speed="7.47" length="5.94" shape="8267.36,967.76 8262.81,967.94 8261.69,968.76"/>
    </edge>
    <edge id=":1415500830_3" function="internal">
        <lane id=":1415500830_3_0" index="0" disallow="tram rail_urban rail rail_electric rail_fast ship" speed="3.65" length="2.34" shape="8267.36,967.76 8266.07,968.41 8265.58,969.16"/>
    </edge>
    <edge id=":1415500830_11" function="internal">
        <lane id=":1415500830_11_0" index="0" allow="pedestrian delivery bicycle" speed="7.47" length="10.84" shape="8261.69,968.76 8260.24,969.82 8259.62,973.39 8260.98,978.64"/>
    </edge>
    <edge id=":1415500830_12" function="internal">
        <lane id=":1415500830_12_0" index="0" disallow="tram rail_urban rail rail_electric rail_fast ship" speed="3.65" length="2.34" shape="8265.58,969.16 8265.88,970.00 8266.98,970.93"/>
    </edge>
    <edge id=":1415500830_4" function="internal">
        <lane id=":1415500830_4_0" index="0" allow="pedestrian delivery bicycle" speed="4.69" length="5.74" shape="8263.96,977.50 8263.57,975.83 8263.88,974.71 8264.89,974.14 8266.60,974.11"/>
    </edge>
    <edge id=":1415500830_5" function="internal">
        <lane id=":1415500830_5_0" index="0" allow="pedestrian delivery bicycle" speed="9.37" length="13.46" shape="8263.96,977.50 8261.98,972.81 8260.10,969.43 8258.35,967.37 8256.71,966.63"/>
    </edge>
    <edge id=":1415500830_6" function="internal">
        <lane id=":1415500830_6_0" index="0" allow="pedestrian delivery bicycle" speed="3.65" length="4.67" shape="8263.96,977.50 8262.79,976.66 8261.90,976.57 8261.29,977.23 8260.98,978.64"/>
    </edge>
    <edge id=":1415500830_7" function="internal">
        <lane id=":1415500830_7_0" index="0" allow="pedestrian delivery bicycle" speed="7.18" length="7.61" shape="8256.35,973.01 8257.58,973.42 8258.77,974.49 8259.90,976.23 8260.98,978.64"/>
    </edge>
    <edge id=":1415500830_8" function="internal">
        <lane id=":1415500830_8_0" index="0" disallow="tram rail_urban rail rail_electric rail_fast ship" speed="26.82" length="10.41" shape="8256.35,973.01 8266.60,974.11"/>