<?xml version="1.0" encoding="UTF-8"?>

<!-- generated on 2022-04-21 15:39:20 by Eclipse SUMO polyconvert Version 1.10.0
<configuration xmlns:xsi="http://www.w3.org/2001/XMLSchema-instance" xsi:noNamespaceSchemaLocation="http://sumo.dlr.de/xsd/polyconvertConfiguration.xsd">

    <input>
        <net-file value="osm.net.xml"/>
        <osm-files value="osm_bbox.osm.xml"/>
        <osm.keep-full-type value="true"/>
        <type-file value="C:\Users\William\src\sumo-1.10.0\data\typemap\osmPolyconvert.typ.xml"/>
    </input>

    <output>
        <output-file value="osm.poly.xml"/>
    </output>

    <processing>
        <poi-layer-offset value="5"/>
    </processing>

    <report>
        <verbose value="true"/>
    </report>

</configuration>
-->

<additional xmlns:xsi="http://www.w3.org/2001/XMLSchema-instance" xsi:noNamespaceSchemaLocation="http://sumo.dlr.de/xsd/additional_file.xsd">
    <location netOffset="-302843.82,-5782476.74" convBoundary="-2536.12,-0.00,5258.46,8845.40" origBoundary="0.077303,52.157941,0.191219,52.237710" projParameter="+proj=utm +zone=31 +ellps=WGS84 +datum=WGS84 +units=m +no_defs"/>

    <poly id="1029356423" type="waterway.stream" color="181,209,209" fill="0" layer="-4.00" shape="779.677275,3388.894059 721.917312,3393.300338"/>
    <poly id="1029356424" type="waterway.stream" color="181,209,209" fill="0" layer="-4.00" shape="780.318462,3220.671816 778.387427,3221.516799 767.675145,3226.184558 716.207739,3249.329308"/>
    <poly id="1029413179" type="waterway.stream" color="181,209,209" fill="0" layer="-4.00" shape="787.238428,3388.315876 779.677275,3388.894059"/>
    <poly id="1029413180" type="building.service" color="255,230,230" fill="1" layer="-1.00" shape="822.528798,3549.556520 825.698164,3549.909764 826.062824,3546.676817 822.893456,3546.323573 822.528798,3549.556520"/>
    <poly id="1029413181" type="building.yes" color="255,230,230" fill="1" layer="-1.00" shape="770.932871,3405.032526 766.401884,3404.866938 766.066762,3414.023418 770.597741,3414.189006 770.932871,3405.032526"/>
    <poly id="1029413182" type="landuse.grass" color="194,194,130" fill="1" layer="-3.00" shape="791.119605,3356.378010 809.427061,3362.701766 805.447108,3405.446076 812.235310,3406.090191 810.684701,3418.947666 804.584329,3418.387654 799.549127,3470.595417 790.195832,3471.545329 774.678813,3453.072306 774.443396,3447.134667 778.620779,3439.763628 788.668270,3418.684521 790.181331,3407.643798 791.122637,3385.979105 791.119605,3356.378010"/>
    <poly id="1040558828" type="building.garages" color="255,230,230" fill="1" layer="-1.00" shape="2846.039672,3104.285997 2851.360058,3102.763214 2854.474715,3113.588077 2849.161175,3115.110590 2846.039672,3104.285997"/>
    <poly id="1040558829" type="building.garages" color="255,230,230" fill="1" layer="-1.00" shape="2849.951625,3116.939355 2855.265163,3115.416843 2858.379806,3126.241709 2853.066279,3127.764218 2849.951625,3116.939355"/>
    <poly id="1040558830" type="building.garages" color="255,230,230" fill="1" layer="-1.00" shape="2853.704625,3129.554405 2859.018150,3128.031897 2862.139614,3138.856497 2856.819265,3140.379270 2853.704625,3129.554405"/>
    <poly id="1047116564" type="natural.wood" color="140,196,107" fill="1" layer="-4.00" shape="3130.147805,2979.938013 3126.033276,2968.561950 3140.969358,2965.593790 3348.422594,2904.175079 3350.996933,2918.362211 3293.958054,2933.968677 3130.147805,2979.938013"/>
    <poly id="1047143238" type="amenity.parking" color="184,184,179" fill="1" layer="-1.00" shape="1433.134044,3368.765344 1441.324079,3370.591083 1445.446840,3357.654552 1438.538862,3353.283558 1433.134044,3368.765344"/>
    <poly id="106655870" type="building.yes" color="255,230,230" fill="1" layer="-1.00" shape="2651.508284,3259.132337 2664.676527,3255.096178 2656.721048,3229.249187 2643.559137,3233.273978 2651.508284,3259.132337"/>
    <poly id="106655871" type="building.industrial" color="255,230,230" fill="1" layer="-1.00" shape="2727.391904,3279.606392 2758.956677,3269.937278 2742.883348,3215.999892 2711.361023,3226.758786 2727.391904,3279.606392"/>
    <poly id="106655872" type="building.yes" color="255,230,230" fill="1" layer="-1.00" shape="2673.816616,3249.402980 2685.419441,3245.940616 2686.160080,3248.417223 2698.791676,3244.658365 2686.887522,3204.878832 2652.633092,3215.088316 2657.534546,3231.489067 2667.371564,3228.552590 2665.377929,3221.882220 2679.288162,3217.739020 2684.314588,3234.535794 2670.594012,3238.626991 2673.816616,3249.402980"/>
    <poly id="106655873" type="building.industrial" color="255,230,230" fill="1" layer="-1.00" shape="2711.050354,3223.552569 2756.136820,3210.991780 2748.645772,3184.235533 2703.565906,3196.796116 2711.050354,3223.552569"/>
    <poly id="106655874" type="building.yes" color="255,230,230" fill="1" layer="-1.00" shape="2696.810296,3248.934563 2650.375113,3263.219341 2680.018918,3373.029439 2706.891688,3365.381675 2703.428634,3351.964653 2724.842881,3345.622653 2696.810296,3248.934563"/>
    <poly id="106655875" type="building.yes" color="255,230,230" fill="1" layer="-1.00" shape="2725.607244,3290.289409 2743.444672,3351.852737 2779.794027,3342.374574 2762.218880,3278.239484 2725.607244,3290.289409"/>
    <poly id="126121771" type="building.apartments" color="255,230,230" fill="1" layer="-1.00" shape="1181.281162,3451.657120 1126.656113,3463.652350 1117.683700,3489.098236 1111.570160,3486.645151 1109.099255,3494.427211 1154.370091,3509.485217 1169.535929,3468.269916 1159.603597,3470.500475 1151.421144,3492.908149 1127.874660,3485.621190 1133.231115,3471.365941 1186.261686,3460.592071 1181.281162,3451.657120"/>
    <poly id="126121775" type="building.apartments" color="255,230,230" fill="1" layer="-1.00" shape="1163.827604,3530.370740 1204.742353,3545.367682 1186.186649,3595.704239 1145.348725,3580.737840 1148.636687,3571.809803 1158.894814,3575.568944 1162.362065,3566.154949 1157.806028,3564.486564 1166.082272,3542.030635 1160.310487,3539.909207 1163.827604,3530.370740"/>
    <poly id="126121780" type="building.apartments" color="255,230,230" fill="1" layer="-1.00" shape="1142.321233,3559.063319 1134.081400,3556.148669 1139.120984,3542.017328 1120.828561,3535.524779 1115.862664,3549.441629 1107.199330,3546.376735 1114.800961,3525.038799 1109.282194,3523.085599 1112.417363,3514.274951 1153.139133,3528.711157 1142.321233,3559.063319"/>
    <poly id="126121783" type="building.apartments" color="255,230,230" fill="1" layer="-1.00" shape="1085.465858,3564.654707 1107.233009,3502.786716 1096.637837,3499.163515 1074.109618,3560.649633 1085.465858,3564.654707"/>
    <poly id="135297509" type="landuse.construction" color="194,194,130" fill="1" layer="-3.00" shape="1905.654380,3346.909291 1934.219998,3338.811912 1935.981626,3345.301873 1937.848226,3352.544978 1939.062042,3357.118781 1955.300691,3352.157852 1960.475411,3370.050712 1975.990411,3365.485871 1995.403176,3433.265988 1935.265683,3449.222391 1904.590616,3458.137969 1888.960103,3401.601657 1917.694134,3393.965255 1905.654380,3346.909291"/>
    <poly id="135510566" type="leisure.recreation_ground" color="207,245,201" fill="1" layer="-2.00" shape="475.950232,3329.759331 507.889252,3324.081104 535.049934,3319.249825 550.594562,3316.483427 564.830532,3344.038517 583.437332,3378.246962 601.383240,3413.918321 617.679840,3446.325308 596.344339,3449.766789 597.940143,3462.209952 601.660340,3485.928224 604.547344,3506.761752 607.156285,3525.590576 586.068884,3528.031115 584.877009,3518.177906 532.735721,3524.423792 506.150319,3530.958504 498.530676,3521.783708 487.238246,3515.438701 473.467242,3473.911082 546.661807,3458.999770 543.927751,3443.060332 533.473946,3444.566699 519.809222,3368.811706 510.276333,3370.415194 509.281363,3364.663616 483.778976,3369.017152 475.950232,3329.759331"/>
    <poly id="135510567" type="building.school" color="255,230,230" fill="1" layer="-1.00" shape="509.731646,3371.695264 508.641423,3365.613368 482.399208,3370.296973 489.856271,3411.228925 468.825804,3415.115444 466.483202,3402.490360 470.526081,3401.739575 468.584389,3391.281363 453.139238,3394.133179 457.105110,3414.712218 460.168729,3414.122815 461.481291,3421.320682 454.557127,3422.597956 457.613812,3439.070249 463.786881,3438.012129 464.621103,3442.300040 463.120939,3442.615757 464.074220,3447.143947 465.506485,3446.842064 467.019238,3454.599954 495.693211,3449.285123 494.114158,3441.752594 488.004804,3442.863830 487.132863,3437.797845 484.240549,3438.391566 482.892317,3431.328752 527.584900,3422.950296 517.790569,3370.205974 509.731646,3371.695264"/>
    <poly id="135859530" type="landuse.grass" color="194,194,130" fill="1" layer="-3.00" shape="1410.929059,3537.270368 1408.229133,3500.993912 1406.466162,3499.682653 1405.421676,3498.020038 1400.756764,3499.830343 1395.489634,3504.760421 1386.137214,3519.930572 1381.437255,3528.992189 1356.517583,3604.514338 1358.438390,3605.663426 1359.341960,3607.743655 1365.862937,3607.352232 1365.153392,3595.809381 1382.189543,3542.137016 1387.024400,3541.856819 1387.209943,3538.931704 1410.929059,3537.270368"/>
    <poly id="135859531" type="landuse.grass" color="194,194,130" fill="1" layer="-3.00" shape="1411.394903,3501.603812 1433.329794,3544.681859 1432.435299,3545.775180 1431.658701,3548.812741 1414.900694,3550.132052 1413.901791,3537.152884 1411.394903,3501.603812"/>
    <poly id="135859533" type="landuse.grass" color="194,194,130" fill="1" layer="-3.00" shape="1433.970876,3507.037219 1432.947356,3490.662372 1427.414949,3490.958949 1415.954523,3494.184849 1416.303370,3496.777019 1416.017526,3497.857426 1433.970876,3507.037219"/>
    <poly id="135859535" type="building.apartments" color="255,230,230" fill="1" layer="-1.00" shape="1496.317663,3481.209433 1496.218925,3479.576260 1488.462154,3480.049731 1480.446134,3480.544592 1480.627807,3483.410646 1474.011432,3483.816813 1466.425517,3484.283568 1466.633362,3487.638597 1460.501762,3488.014493 1452.595098,3488.505079 1452.743349,3490.871309 1453.344017,3500.703430 1469.007401,3499.739330 1468.845539,3497.028406 1482.720204,3496.179567 1482.537019,3493.101978 1496.992139,3492.219113 1496.694607,3487.286237 1496.317663,3481.209433"/>
    <poly id="137995953" type="landuse.commercial" color="209,209,204" fill="1" layer="-3.00" shape="1743.098931,3391.506800 1747.412149,3360.477355 1704.138802,3353.342316 1700.756848,3360.090860 1663.739816,3371.173658 1661.293682,3360.356406 1625.088344,3370.672450 1607.208752,3365.442518 1597.479040,3369.345793 1615.640854,3429.924258 1743.098931,3391.506800"/>
    <poly id="139265131" type="building.yes" color="255,230,230" fill="1" layer="-1.00" shape="2699.737339,2544.689284 2708.876758,2548.361949 2711.423330,2543.128143 2701.162054,2538.953823 2699.737339,2544.689284"/>
    <poly id="139265132" type="building.yes" color="255,230,230" fill="1" layer="-1.00" shape="2633.455705,2521.465927 2639.789838,2523.778609 2642.718014,2514.142054 2636.398277,2512.196302 2633.455705,2521.465927"/>
    <poly id="139291482" type="building.school" color="255,230,230" fill="1" layer="-1.00" shape="2635.394824,2549.932312 2661.683316,2560.070037 2663.349562,2555.605761 2666.339471,2556.958391 2669.027769,2550.627634 2639.017955,2539.165967 2635.394824,2549.932312"/>
    <poly id="139291484" type="leisure.swimming_pool" color="207,245,201" fill="1" layer="-2.00" shape="2659.367589,2557.232079 2660.834881,2552.408113 2647.236967,2547.641023 2645.399415,2552.100894 2659.367589,2557.232079"/>
    <poly id="139291485" type="building.school" color="255,230,230" fill="1" layer="-1.00" shape="2606.322226,2538.979724 2627.214482,2547.324624 2629.703195,2540.444861 2628.360986,2539.038695 2629.722873,2536.412722 2610.485138,2528.013978 2606.322226,2538.979724"/>
    <poly id="139440506" type="amenity.social_facility" color="237,199,199" fill="1" layer="-1.00" shape="2490.238729,2514.584731 2500.756243,2516.387648 2500.226262,2521.542346 2508.184579,2522.677414 2508.892130,2517.337560 2513.480347,2517.725263 2513.367435,2519.556066 2541.611392,2522.823165 2541.378996,2526.317982 2551.697497,2527.761321 2555.493030,2492.978097 2557.523847,2493.265834 2561.294773,2463.082911 2546.362003,2461.464418 2545.577721,2469.557963 2547.971998,2470.210058 2545.262097,2490.105849 2517.589478,2486.226044 2517.449942,2487.901984 2498.298672,2486.070724 2497.437236,2496.728683 2499.446214,2496.460435 2498.882548,2505.636692 2491.497925,2504.467960 2490.238729,2514.584731"/>
    <poly id="139440506#1" type="building.yes" color="255,230,230" fill="1" layer="-1.00" shape="2490.238729,2514.584731 2500.756243,2516.387648 2500.226262,2521.542346 2508.184579,2522.677414 2508.892130,2517.337560 2513.480347,2517.725263 2513.367435,2519.556066 2541.611392,2522.823165 2541.378996,2526.317982 2551.697497,2527.761321 2555.493030,2492.978097 2557.523847,2493.265834 2561.294773,2463.082911 2546.362003,2461.464418 2545.577721,2469.557963 2547.971998,2470.210058 2545.262097,2490.105849 2517.589478,2486.226044 2517.449942,2487.901984 2498.298672,2486.070724 2497.437236,2496.728683 2499.446214,2496.460435 2498.882548,2505.636692 2491.497925,2504.467960 2490.238729,2514.584731"/>
    <poly id="139440508" type="building.yes" color="255,230,230" fill="1" layer="-1.00" shape="2516.304033,2458.558078 2507.813644,2457.822531 2506.687011,2470.617955 2509.764516,2470.886825 2509.101996,2478.418778 2522.236157,2479.562129 2522.903784,2471.985433 2515.182904,2471.319874 2516.304033,2458.558078"/>
    <poly id="139441135" type="amenity.place_of_worship" color="237,199,199" fill="1" layer="-1.00" shape="2513.792837,2547.113049 2496.622168,2551.952653 2499.452166,2561.953307 2505.024658,2560.386870 2506.471794,2565.508437 2504.054354,2566.182505 2506.335821,2574.244708 2533.358112,2566.634943 2529.249072,2552.129737 2516.249130,2555.792026 2513.792837,2547.113049"/>
    <poly id="139441135#1" type="building.yes" color="255,230,230" fill="1" layer="-1.00" shape="2513.792837,2547.113049 2496.622168,2551.952653 2499.452166,2561.953307 2505.024658,2560.386870 2506.471794,2565.508437 2504.054354,2566.182505 2506.335821,2574.244708 2533.358112,2566.634943 2529.249072,2552.129737 2516.249130,2555.792026 2513.792837,2547.113049"/>
    <poly id="139478529" type="building.school" color="255,230,230" fill="1" layer="-1.00" shape="3268.471038,2395.324064 3246.852602,2377.850894 3192.503278,2443.956182 3226.044850,2470.294619 3245.051237,2446.921796 3247.708348,2449.045062 3230.378442,2468.376603 3245.471151,2479.690579 3252.109448,2472.815826 3248.610029,2469.110763 3252.435347,2464.350634 3263.387742,2474.301029 3270.227631,2466.104332 3255.890979,2453.992289 3260.646969,2448.872794 3283.584041,2467.163035 3271.498896,2482.146509 3284.203467,2492.440421 3306.814982,2464.973402 3306.047933,2464.090238 3311.136960,2458.033452 3310.281177,2457.331940 3312.052133,2455.703575 3320.602926,2463.064208 3318.152922,2466.233669 3344.902144,2488.183640 3358.658279,2471.286377 3371.018560,2454.053983 3347.098741,2433.908631 3337.109030,2446.114984 3335.688591,2444.978969 3333.218994,2447.648055 3317.083209,2433.991465 3320.316184,2430.011834 3331.050891,2439.124533 3334.130824,2435.607486 3338.406501,2439.382467 3346.103778,2429.648951 3342.115866,2426.230203 3344.724487,2422.564556 3324.568657,2404.844543 3320.022778,2410.612791 3316.791447,2407.810367 3321.246851,2402.179291 3306.075561,2389.732257 3311.512594,2383.294365 3277.515023,2354.400710 3272.592633,2359.994416 3266.726162,2355.457650 3256.115688,2368.245272 3256.985417,2369.302592 3255.945835,2370.902354 3257.458654,2372.123824 3276.793845,2387.581624 3274.082467,2390.894969 3289.550187,2403.742354 3292.173142,2400.443614 3296.256370,2403.847459 3293.364476,2407.446263 3316.250704,2426.885684 3313.099319,2430.850989 3311.213507,2429.543870 3295.151798,2448.402370 3290.584803,2453.803978 3242.246002,2415.126135 3250.304419,2405.177874 3257.723132,2411.769766 3250.994192,2418.080102 3255.926271,2422.007509 3257.168236,2420.856414 3259.164248,2422.704878 3258.212975,2424.111868 3263.052828,2428.131980 3282.425626,2404.667030 3270.270722,2394.429555 3268.471038,2395.324064"/>
    <poly id="140385159" type="building.yes" color="255,230,230" fill="1" layer="-1.00" shape="2958.602393,3009.422578 2973.707159,3004.999566 2970.990817,2995.773796 2979.788579,2993.201671 2982.504469,3002.416326 2996.533474,2998.313961 2975.183058,2925.651026 2960.484199,2929.957879 2968.115120,2955.940494 2960.474681,2958.177722 2957.574948,2948.290967 2941.976319,2952.867016 2958.602393,3009.422578"/>
    <poly id="140385160" type="building.yes" color="255,230,230" fill="1" layer="-1.00" shape="2920.750523,2888.818900 2971.787228,2874.467920 2967.892520,2860.677899 2916.855242,2875.017796 2920.750523,2888.818900"/>
    <poly id="140385161" type="building.yes" color="255,230,230" fill="1" layer="-1.00" shape="2933.710889,2923.624090 2980.526473,2909.516627 2976.178813,2892.203002 2928.273725,2906.809801 2933.710889,2923.624090"/>
    <poly id="140385162" type="building.yes" color="255,230,230" fill="1" layer="-1.00" shape="2914.472046,2936.093833 2912.397681,2929.103593 2903.357270,2931.774438 2905.431647,2938.764674 2914.472046,2936.093833"/>
    <poly id="140385163" type="building.yes" color="255,230,230" fill="1" layer="-1.00" shape="2908.481185,2877.751588 2888.014125,2883.866188 2900.377508,2925.086977 2920.844840,2918.983543 2908.481185,2877.751588"/>
    <poly id="143731087" type="landuse.industrial" color="209,209,204" fill="1" layer="-3.00" shape="1595.825612,3435.473008 1534.930803,3454.070191 1520.083799,3458.030968 1531.764804,3631.600455 1532.350202,3645.208471 1532.719241,3660.963252 1444.334988,3680.458283 1431.164466,3681.446483 1463.915756,3746.258936 1431.821631,3765.445911 1496.202926,3889.079230 1530.321559,3940.217975 1578.141796,3916.512707 1612.881440,3985.312269 1625.834569,3981.092350 1768.170306,3944.403614 1740.754225,3852.495363 1672.933193,3872.700848 1660.409441,3828.337233 1660.145750,3827.378764 1651.902531,3797.657787 1648.962607,3788.719838 1638.014211,3778.895298 1608.267359,3663.915608 1605.181430,3651.976576 1600.611383,3454.750723 1595.825612,3435.473008"/>
    <poly id="143731174" type="building.office" color="255,230,230" fill="1" layer="-1.00" shape="1544.252145,3538.618218 1561.726819,3537.594006 1561.024658,3524.146516 1558.031419,3524.264722 1557.784336,3518.528022 1556.021194,3518.597651 1555.809980,3513.249314 1560.044799,3513.026394 1559.673504,3506.570725 1561.204298,3506.510273 1560.996635,3499.691772 1555.221979,3499.919818 1554.826497,3494.411710 1556.530147,3494.221929 1555.764276,3480.721273 1563.757598,3480.171747 1563.749727,3478.412484 1569.925225,3477.934754 1569.683733,3471.819192 1575.624880,3471.473226 1575.555069,3469.705273 1581.436908,3469.417338 1581.494862,3470.885073 1587.738900,3470.582844 1587.662507,3468.648102 1594.660287,3468.193619 1593.607877,3455.060647 1581.251805,3455.715566 1581.080576,3451.379077 1567.542464,3451.913655 1567.333132,3452.679206 1564.631707,3452.908383 1564.720807,3456.724699 1555.365291,3457.272331 1555.649424,3462.907338 1539.646669,3463.773194 1540.366032,3476.095212 1535.892432,3476.338714 1536.852095,3490.065584 1541.084299,3489.775933 1542.184253,3505.668890 1538.888307,3505.921563 1539.358023,3513.308816 1537.360523,3513.510209 1538.173900,3526.652620 1543.233411,3526.341431 1544.252145,3538.618218"/>
    <poly id="143732859" type="building.yes" color="255,230,230" fill="1" layer="-1.00" shape="1218.305667,3227.961716 1216.100323,3235.543873 1252.922646,3246.181779 1266.112560,3200.824279 1264.506327,3200.364380 1283.800700,3137.481581 1245.318574,3125.739705 1226.316603,3187.697915 1224.743654,3187.214438 1212.762575,3226.265488 1218.305667,3227.961716"/>
    <poly id="143732862" type="leisure.pitch" color="207,245,201" fill="1" layer="-2.00" shape="1259.653489,3246.238545 1283.452425,3253.137558 1294.309680,3256.283082 1306.731365,3215.032074 1325.191373,3147.828053 1291.019889,3138.632747 1259.653489,3246.238545"/>
    <poly id="143732862#1" type="sport.tennis" color="79,230,125" fill="1" layer="-2.00" shape="1259.653489,3246.238545 1283.452425,3253.137558 1294.309680,3256.283082 1306.731365,3215.032074 1325.191373,3147.828053 1291.019889,3138.632747 1259.653489,3246.238545"/>
    <poly id="143733420" type="amenity.place_of_worship" color="237,199,199" fill="1" layer="-1.00" shape="1938.817825,3247.411747 1946.708155,3248.581942 1946.290414,3251.182069 1948.700366,3251.543691 1947.920519,3256.418794 1945.447486,3256.193297 1945.217861,3258.529871 1941.766919,3258.153594 1941.141890,3261.920086 1935.999649,3261.354329 1935.698464,3265.174877 1933.207311,3266.052612 1932.955521,3268.000285 1927.111551,3267.517876 1927.925428,3260.380721 1929.618303,3260.436501 1930.365419,3253.168339 1937.976937,3254.037687 1938.817825,3247.411747"/>
    <poly id="143733420#1" type="building.church" color="255,230,230" fill="1" layer="-1.00" shape="1938.817825,3247.411747 1946.708155,3248.581942 1946.290414,3251.182069 1948.700366,3251.543691 1947.920519,3256.418794 1945.447486,3256.193297 1945.217861,3258.529871 1941.766919,3258.153594 1941.141890,3261.920086 1935.999649,3261.354329 1935.698464,3265.174877 1933.207311,3266.052612 1932.955521,3268.000285 1927.111551,3267.517876 1927.925428,3260.380721 1929.618303,3260.436501 1930.365419,3253.168339 1937.976937,3254.037687 1938.817825,3247.411747"/>
    <poly id="143733426" type="amenity.place_of_worship" color="237,199,199" fill="1" layer="-1.00" shape="1972.781628,3291.176070 1973.899191,3290.875894 1971.884293,3283.516121 1970.604460,3283.867237 1968.110541,3275.468375 1955.102265,3279.210566 1957.500349,3287.435016 1956.050978,3287.826227 1958.065898,3295.185994 1959.636969,3294.756579 1962.067198,3303.102264 1963.990137,3302.569892 1964.746296,3305.257396 1972.889987,3303.132381 1972.069695,3300.380584 1975.274219,3299.541577 1972.781628,3291.176070"/>
    <poly id="143733426#1" type="building.yes" color="255,230,230" fill="1" layer="-1.00" shape="1972.781628,3291.176070 1973.899191,3290.875894 1971.884293,3283.516121 1970.604460,3283.867237 1968.110541,3275.468375 1955.102265,3279.210566 1957.500349,3287.435016 1956.050978,3287.826227 1958.065898,3295.185994 1959.636969,3294.756579 1962.067198,3303.102264 1963.990137,3302.569892 1964.746296,3305.257396 1972.889987,3303.132381 1972.069695,3300.380584 1975.274219,3299.541577 1972.781628,3291.176070"/>
    <poly id="143735534" type="building.retail" color="255,230,230" fill="1" layer="-1.00" shape="2540.034983,3198.340618 2571.328064,3188.369179 2571.845366,3189.863408 2573.714837,3197.028627 2550.091577,3203.257578 2540.034983,3198.340618"/>
    <poly id="143735534#1" type="shop.supermarket" color="237,199,255" fill="1" layer="-1.00" shape="2540.034983,3198.340618 2571.328064,3188.369179 2571.845366,3189.863408 2573.714837,3197.028627 2550.091577,3203.257578 2540.034983,3198.340618"/>
    <poly id="143735538" type="building.yes" color="255,230,230" fill="1" layer="-1.00" shape="2577.572438,3202.879610 2580.857849,3214.900361 2564.069882,3219.490982 2562.554147,3214.360966 2560.550859,3214.940803 2559.292512,3210.090223 2562.149495,3209.287530 2560.720546,3203.753195 2572.000922,3200.793236 2572.825717,3204.190846 2577.572438,3202.879610"/>
    <poly id="143735539" type="building.retail" color="255,230,230" fill="1" layer="-1.00" shape="2610.396108,3195.454212 2603.616940,3169.416314 2594.161066,3171.602940 2596.898240,3183.433642 2571.845366,3189.863408 2573.714837,3197.028627 2575.136938,3202.563234 2579.683591,3201.560542 2580.017238,3203.084259 2610.396108,3195.454212"/>
    <poly id="143735539#1" type="shop.car_repair" color="237,199,255" fill="1" layer="-1.00" shape="2610.396108,3195.454212 2603.616940,3169.416314 2594.161066,3171.602940 2596.898240,3183.433642 2571.845366,3189.863408 2573.714837,3197.028627 2575.136938,3202.563234 2579.683591,3201.560542 2580.017238,3203.084259 2610.396108,3195.454212"/>
    <poly id="143735540" type="building.retail" color="255,230,230" fill="0" layer="-1.00" shape="2538.899394,3199.576829 2540.034983,3198.340618 2550.091577,3203.257578 2551.370185,3208.797817 2548.418678,3209.459456"/>
    <poly id="148113978" type="building.university" color="255,230,230" fill="1" layer="-1.00" shape="1361.257935,3137.259237 1361.970230,3137.442677 1362.593239,3137.618511 1360.854497,3144.023940 1376.751336,3148.418216 1378.432784,3141.948238 1380.280309,3135.003962 1383.360299,3135.862252 1386.938517,3136.856767 1387.985375,3132.861916 1364.285409,3126.570976 1361.257935,3137.259237"/>
    <poly id="148113979" type="building.university" color="255,230,230" fill="1" layer="-1.00" shape="1471.761365,3195.212854 1473.617479,3189.003291 1462.964810,3185.838155 1461.108708,3192.047722 1471.761365,3195.212854"/>
    <poly id="148113980" type="building.university" color="255,230,230" fill="1" layer="-1.00" shape="1405.969602,3138.632680 1397.098223,3136.377303 1392.929476,3152.656649 1401.549275,3154.955369 1405.969602,3138.632680"/>
    <poly id="148113981" type="building.university" color="255,230,230" fill="1" layer="-1.00" shape="1436.963296,3118.687459 1436.375235,3120.782092 1435.999581,3122.189003 1434.491451,3127.850277 1432.369394,3136.164035 1422.861790,3133.744429 1427.231394,3116.655347 1421.997087,3115.325325 1417.094346,3114.071299 1416.418470,3116.715096 1412.717938,3131.160660 1396.489470,3127.035514 1399.003666,3117.213942 1392.589234,3115.641036 1389.709852,3126.267740 1387.985375,3132.861916 1386.938517,3136.856767 1383.566719,3150.264804 1388.261768,3151.460184 1392.929476,3152.656649 1397.098223,3136.377303 1405.969602,3138.632680 1422.281355,3142.787973 1424.922855,3143.463157 1427.591691,3144.137263 1423.761449,3159.111362 1428.331701,3160.267164 1432.854110,3161.424860 1437.591653,3142.906907 1444.097515,3144.543075 1444.605941,3145.803691 1445.297339,3145.631600 1446.429020,3145.341884 1445.906487,3144.070689 1446.829247,3140.225531 1448.146165,3135.095234 1439.911039,3133.003965 1440.917568,3129.200042 1442.749339,3129.651088 1444.092012,3129.330763 1445.193579,3128.452000 1445.702848,3126.961854 1445.459207,3125.646231 1444.269778,3124.301155 1445.269866,3120.853857 1442.530919,3120.137966 1436.963296,3118.687459"/>
    <poly id="148113982" type="building.university" color="255,230,230" fill="1" layer="-1.00" shape="1401.549275,3154.955369 1413.129775,3158.039170 1418.055614,3159.359096 1422.281355,3142.787973 1405.969602,3138.632680 1401.549275,3154.955369"/>
    <poly id="148113983" type="building.house" color="255,230,230" fill="1" layer="-1.00" shape="1467.588975,3180.042654 1462.779161,3178.539912 1461.132632,3183.816866 1474.584352,3188.007353 1476.365436,3182.324173 1473.260599,3181.355443 1474.001709,3178.976355 1468.464186,3177.246214 1467.588975,3180.042654"/>
    <poly id="148113984" type="building.university" color="255,230,230" fill="1" layer="-1.00" shape="1289.112361,3095.063940 1290.516907,3095.442731 1294.056015,3082.462329 1277.020197,3077.834924 1273.481567,3090.826458 1284.296648,3093.762054 1283.950370,3095.045316 1283.680629,3096.013727 1285.964146,3096.636175 1288.496340,3097.315612 1288.795418,3096.223539 1289.112361,3095.063940"/>
    <poly id="148113985" type="building.university" color="255,230,230" fill="1" layer="-1.00" shape="1460.250833,3093.055412 1482.923192,3099.498769 1485.713151,3089.722043 1463.041192,3083.289792 1461.483663,3088.741411 1460.250833,3093.055412"/>
    <poly id="148113986" type="building.university" color="255,230,230" fill="1" layer="-1.00" shape="1387.985375,3132.861916 1389.709852,3126.267740 1392.589234,3115.641036 1393.087261,3114.039963 1392.487868,3112.036797 1392.014964,3110.462958 1389.581551,3109.857522 1390.426321,3106.984314 1376.322347,3103.098230 1375.538852,3106.136067 1371.626842,3105.009977 1368.198397,3106.593235 1366.728008,3110.783016 1364.895782,3110.320879 1364.267424,3112.261203 1363.486664,3114.675287 1366.230265,3115.335269 1366.922275,3117.256817 1364.285409,3126.570976 1387.985375,3132.861916"/>
    <poly id="148113987" type="building.university" color="255,230,230" fill="1" layer="-1.00" shape="1164.881771,3083.361771 1174.583696,3085.149560 1175.476587,3080.381185 1165.767380,3078.582545 1164.881771,3083.361771"/>
    <poly id="148113988" type="amenity.bicycle_parking" color="237,199,199" fill="1" layer="-1.00" shape="1175.367951,3075.039920 1159.513513,3072.248255 1158.707079,3076.779345 1174.568338,3079.570737 1175.367951,3075.039920"/>
    <poly id="148113988#1" type="building.yes" color="255,230,230" fill="1" layer="-1.00" shape="1175.367951,3075.039920 1159.513513,3072.248255 1158.707079,3076.779345 1174.568338,3079.570737 1175.367951,3075.039920"/>
    <poly id="148113989" type="building.university" color="255,230,230" fill="1" layer="-1.00" shape="1250.974316,3109.857999 1252.094055,3105.804548 1241.983568,3103.030477 1240.863836,3107.083931 1250.974316,3109.857999"/>
    <poly id="148113990" type="building.university" color="255,230,230" fill="1" layer="-1.00" shape="1279.941622,3100.994845 1280.554560,3098.665338 1281.197275,3096.223287 1273.310557,3094.118509 1271.985887,3099.048711 1279.941622,3100.994845"/>
    <poly id="148113991" type="amenity.bicycle_parking" color="237,199,199" fill="1" layer="-1.00" shape="1464.110366,2999.456175 1465.421346,2994.693628 1429.243200,2984.797035 1427.938646,2989.548203 1464.110366,2999.456175"/>
    <poly id="148113991#1" type="building.yes" color="255,230,230" fill="1" layer="-1.00" shape="1464.110366,2999.456175 1465.421346,2994.693628 1429.243200,2984.797035 1427.938646,2989.548203 1464.110366,2999.456175"/>