<?xml version="1.0" encoding="UTF-8"?>

<!-- generated on 2022-04-21 15:39:22 by Eclipse SUMO duarouter Version 1.10.0
<configuration xmlns:xsi="http://www.w3.org/2001/XMLSchema-instance" xsi:noNamespaceSchemaLocation="http://sumo.dlr.de/xsd/duarouterConfiguration.xsd">

    <input>
        <net-file value="C:\Users\William\src\sumo-1.10.0\tools\2022-04-21-15-39-14\osm.net.xml"/>
        <route-files value="C:\Users\William\src\sumo-1.10.0\tools\2022-04-21-15-39-14\osm.passenger.trips.xml"/>
    </input>

    <output>
        <output-file value="C:\Users\William\src\sumo-1.10.0\tools\2022-04-21-15-39-14\osm.passenger.trips.xml.tmp"/>
        <write-trips value="true"/>
    </output>

    <time>
        <begin value="0"/>
        <end value="3600"/>
    </time>

    <report>
        <no-warnings value="true"/>
        <ignore-errors value="true"/>
        <no-step-log value="true"/>
    </report>

</configuration>
-->

<routes xmlns:xsi="http://www.w3.org/2001/XMLSchema-instance" xsi:noNamespaceSchemaLocation="http://sumo.dlr.de/xsd/routes_file.xsd">
    <vType id="veh_passenger" vClass="passenger"/>
    <trip id="veh0" type="veh_passenger" depart="0.00" departLane="best" from="-4235931#0" to="-4196856#0"/>
    <trip id="veh2" type="veh_passenger" depart="8.12" departLane="best" from="49996514#0" to="-27048415"/>
    <trip id="veh3" type="veh_passenger" depart="12.18" departLane="best" from="-566807933#14" to="-173463226#0"/>
    <trip id="veh4" type="veh_passenger" depart="16.24" departLane="best" from="-4196849#6" to="165546945#2"/>
    <trip id="veh6" type="veh_passenger" depart="24.36" departLane="best" from="3993178#2" to="23911351#3"/>
    <trip id="veh7" type="veh_passenger" depart="28.42" departLane="best" from="-4196849#9" to="3292166#5"/>
    <trip id="veh9" type="veh_passenger" depart="36.55" departLane="best" from="4235968#5" to="4040906"/>
    <trip id="veh10" type="veh_passenger" depart="40.61" departLane="best" from="-436110096#1" to="-3986537#0"/>
    <trip id="veh11" type="veh_passenger" depart="44.67" departLane="best" from="723653652#0" to="-4236022"/>
    <trip id="veh12" type="veh_passenger" depart="48.73" departLane="best" from="-3291925" to="-3292166#10"/>
    <trip id="veh13" type="veh_passenger" depart="52.79" departLane="best" from="436110099#3" to="3293402#12"/>
    <trip id="veh14" type="veh_passenger" depart="56.85" departLane="best" from="4235975#1" to="4196904#2"/>
    <trip id="veh15" type="veh_passenger" depart="60.91" departLane="best" from="23911347#18" to="83143610#2"/>
    <trip id="veh16" type="veh_passenger" depart="64.97" departLane="best" from="-4604025#6" to="23911368#3"/>
    <trip id="veh17" type="veh_passenger" depart="69.03" departLane="best" from="4236010" to="3293405#5"/>
    <trip id="veh18" type="veh_passenger" depart="73.09" departLane="best" from="451354451#0" to="269001813#4"/>
    <trip id="veh19" type="veh_passenger" depart="77.15" departLane="best" from="4040908" to="-23911347#3"/>
    <trip id="veh20" type="veh_passenger" depart="81.21" departLane="best" from="-4196900#0" to="-4235947#5"/>
    <trip id="veh21" type="veh_passenger" depart="85.27" departLane="best" from="-269001183#2" to="-4196904#4"/>
    <trip id="veh22" type="veh_passenger" depart="89.33" departLane="best" from="-3292166#7" to="-4235932#1"/>
    <trip id="veh23" type="veh_passenger" depart="93.39" departLane="best" from="37632470#2" to="-451354451#0"/>
    <trip id="veh24" type="veh_passenger" depart="97.46" departLane="best" from="-451354451#7" to="-4196826#1"/>
    <trip id="veh25" type="veh_passenger" depart="101.52" departLane="best" from="-4235913#7" to="566807933#10"/>
    <trip id="veh26" type="veh_passenger" depart="105.58" departLane="best" from="3986537#1" to="3293402#2"/>
    <trip id="veh27" type="veh_passenger" depart="109.64" departLane="best" from="-3993184#1" to="4196904#2"/>
    <trip id="veh28" type="veh_passenger" depart="113.70" departLane="best" from="-3993181#1" to="-4604025#8"/>
    <trip id="veh29" type="veh_passenger" depart="117.76" departLane="best" from="833581037#2" to="388118900#1"/>
    <trip id="veh31" type="veh_passenger" depart="125.88" departLane="best" from="436110096#6" to="4235932#1"/>
    <trip id="veh32" type="veh_passenger" depart="129.94" departLane="best" from="-4196900#1" to="-176821652#0"/>
    <trip id="veh33" type="veh_passenger" depart="134.00" departLane="best" from="-4235993#1" to="-4235913#8"/>
    <trip id="veh34" type="veh_passenger" depart="138.06" departLane="best" from="-4196831" to="566807933#25"/>
    <trip id="veh35" type="veh_passenger" depart="142.12" departLane="best" from="4604025#8" to="-4235993#0"/>
    <trip id="veh36" type="veh_passenger" depart="146.18" departLane="best" from="3993181#2" to="-49996516#2"/>
    <trip id="veh37" type="veh_passenger" depart="150.24" departLane="best" from="52161483#0" to="-833581034#0"/>
    <trip id="veh38" type="veh_passenger" depart="154.30" departLane="best" from="-4235913#5" to="-4235898#3"/>
    <trip id="veh39" type="veh_passenger" depart="158.36" departLane="best" from="24270501#1" to="-4235913#2"/>
    <trip id="veh40" type="veh_passenger" depart="162.43" departLane="best" from="3291976#3" to="513363013#1"/>
    <trip id="veh41" type="veh_passenger" depart="166.49" departLane="best" from="-52161482#1" to="-4196849#7"/>
    <trip id="veh42" type="veh_passenger" depart="170.55" departLane="best" from="926091303#0" to="171273436#1"/>
    <trip id="veh44" type="veh_passenger" depart="178.67" departLane="best" from="-3293397#4" to="3374382#0"/>
    <trip id="veh45" type="veh_passenger" depart="182.73" departLane="best" from="4235948#2" to="-566807933#14"/>
    <trip id="veh46" type="veh_passenger" depart="186.79" departLane="best" from="-23911370" to="-4604187#0"/>
    <trip id="veh47" type="veh_passenger" depart="190.85" departLane="best" from="915481009" to="213867409"/>
    <trip id="veh48" type="veh_passenger" depart="194.91" departLane="best" from="80432415" to="44367572#9"/>
    <trip id="veh49" type="veh_passenger" depart="198.97" departLane="best" from="-143735535#1" to="4196856#1"/>
    <trip id="veh51" type="veh_passenger" depart="207.09" departLane="best" from="-3293402#10" to="-58073483#1"/>
    <trip id="veh52" type="veh_passenger" depart="211.15" departLane="best" from="-802704970" to="690156445#1"/>
    <trip id="veh53" type="veh_passenger" depart="215.21" departLane="best" from="4604025#7" to="-4235913#3"/>
    <trip id="veh54" type="veh_passenger" depart="219.27" departLane="best" from="52161482#3" to="4604025#12"/>
    <trip id="veh55" type="veh_passenger" depart="223.33" departLane="best" from="-4235955" to="388118900#0"/>
    <trip id="veh56" type="veh_passenger" depart="227.40" departLane="best" from="3293402#2" to="-3904050#2"/>
    <trip id="veh57" type="veh_passenger" depart="231.46" departLane="best" from="4235913#4" to="23911347#6"/>
    <trip id="veh58" type="veh_passenger" depart="235.52" departLane="best" from="4235936" to="23911347#1"/>
    <trip id="veh59" type="veh_passenger" depart="239.58" departLane="best" from="-108856410" to="-4236006#11"/>
    <trip id="veh61" type="veh_passenger" depart="247.70" departLane="best" from="-4235968#5" to="-23911352#5"/>
    <trip id="veh62" type="veh_passenger" depart="251.76" departLane="best" from="4604187#0" to="566807933#9"/>
    <trip id="veh63" type="veh_passenger" depart="255.82" departLane="best" from="-27048415" to="121115784"/>
    <trip id="veh64" type="veh_passenger" depart="259.88" departLane="best" from="-24270501#1" to="4235913#2"/>
    <trip id="veh65" type="veh_passenger" depart="263.94" departLane="best" from="4235913#8" to="-3293405#5"/>
    <trip id="veh66" type="veh_passenger" depart="268.00" departLane="best" from="-833581038#0" to="23911352#5"/>
    <trip id="veh67" type="veh_passenger" depart="272.06" departLane="best" from="-4235913#5" to="4604025#2"/>
    <trip id="veh68" type="veh_passenger" depart="276.12" departLane="best" from="-566807933#15" to="-4196833#0"/>
    <trip id="veh69" type="veh_passenger" depart="280.18" departLane="best" from="-4040879#1" to="-4235977#1"/>
    <trip id="veh70" type="veh_passenger" depart="284.24" departLane="best" from="-690156445#2" to="171273439#2"/>
    <trip id="veh71" type="veh_passenger" depart="288.30" departLane="best" from="-3293402#4" to="-4196887"/>
    <trip id="veh72" type="veh_passenger" depart="292.37" departLane="best" from="-4236037" to="3292166#2"/>
    <trip id="veh73" type="veh_passenger" depart="296.43" departLane="best" from="-4196904#0" to="-4196849#9"/>
    <trip id="veh74" type="veh_passenger" depart="300.49" departLane="best" from="-24270504#1" to="3651125"/>
    <trip id="veh75" type="veh_passenger" depart="304.55" departLane="best" from="-4196900#1" to="521543296"/>
    <trip id="veh76" type="veh_passenger" depart="308.61" departLane="best" from="44367572#8" to="-24270504#1"/>
    <trip id="veh78" type="veh_passenger" depart="316.73" departLane="best" from="-4196836" to="-3293406#4"/>
    <trip id="veh80" type="veh_passenger" depart="324.85" departLane="best" from="-3292166#10" to="-566807933#8"/>
    <trip id="veh81" type="veh_passenger" depart="328.91" departLane="best" from="-566807933#17" to="-833581035#2"/>
    <trip id="veh83" type="veh_passenger" depart="337.03" departLane="best" from="833581035#3" to="-3292166#3"/>
    <trip id="veh84" type="veh_passenger" depart="341.09" departLane="best" from="-52161482#3" to="-436110094#0"/>
    <trip id="veh85" type="veh_passenger" depart="345.15" departLane="best" from="451354451#0" to="-4235898#6"/>
    <trip id="veh87" type="veh_passenger" depart="353.27" departLane="best" from="-566807933#14" to="-4235933"/>
    <trip id="veh88" type="veh_passenger" depart="357.34" departLane="best" from="-4235898#8" to="56213864#0"/>
    <trip id="veh89" type="veh_passenger" depart="361.40" departLane="best" from="-723653652#1" to="451354451#0"/>
    <trip id="veh90" type="veh_passenger" depart="365.46" departLane="best" from="23911368#0" to="-23911351#0"/>
    <trip id="veh91" type="veh_passenger" depart="369.52" departLane="best" from="802704970" to="56213864#2"/>
    <trip id="veh92" type="veh_passenger" depart="373.58" departLane="best" from="437192879" to="-3993181#4"/>
    <trip id="veh93" type="veh_passenger" depart="377.64" departLane="best" from="121115784" to="-4196836"/>
    <trip id="veh94" type="veh_passenger" depart="381.70" departLane="best" from="-52161482#2" to="-23911368#0"/>
    <trip id="veh95" type="veh_passenger" depart="385.76" departLane="best" from="-4604025#7" to="833581035#4"/>
    <trip id="veh96" type="veh_passenger" depart="389.82" departLane="best" from="-4235913#5" to="4235947#1"/>
    <trip id="veh97" type="veh_passenger" depart="393.88" departLane="best" from="-80432415" to="-566807933#15"/>
    <trip id="veh98" type="veh_passenger" depart="397.94" departLane="best" from="723653652#0" to="84465505"/>
    <trip id="veh99" type="veh_passenger" depart="402.00" departLane="best" from="23911371#0" to="4196852"/>
    <trip id="veh101" type="veh_passenger" depart="410.12" departLane="best" from="23911351#0" to="4235898#8"/>
    <trip id="veh102" type="veh_passenger" depart="414.18" departLane="best" from="-23911352#4" to="3291976#1"/>
    <trip id="veh106" type="veh_passenger" depart="430.43" departLane="best" from="-4196905#1" to="-3293402#20"/>
    <trip id="veh108" type="veh_passenger" depart="438.55" departLane="best" from="3292985#4" to="3293406#0"/>
    <trip id="veh109" type="veh_passenger" depart="442.61" departLane="best" from="-56213864#5" to="3291976#1"/>
    <trip id="veh110" type="veh_passenger" depart="446.67" departLane="best" from="173463226#2" to="565064573"/>
    <trip id="veh111" type="veh_passenger" depart="450.73" departLane="best" from="-4040907#0" to="4196849#7"/>
    <trip id="veh112" type="veh_passenger" depart="454.79" departLane="best" from="-4196915#0" to="-49996516#2"/>
    <trip id="veh114" type="veh_passenger" depart="462.91" departLane="best" from="-4235993#2" to="4235904#1"/>
    <trip id="veh116" type="veh_passenger" depart="471.03" departLane="best" from="941604650#1" to="915481009"/>
    <trip id="veh118" type="veh_passenger" depart="479.15" departLane="best" from="-4235913#5" to="565064570#1"/>
    <trip id="veh119" type="veh_passenger" depart="483.21" departLane="best" from="-451354451#6" to="-3986537#2"/>
    <trip id="veh120" type="veh_passenger" depart="487.28" departLane="best" from="4236022" to="4040907#5"/>
    <trip id="veh121" type="veh_passenger" depart="491.34" departLane="best" from="3293402#4" to="833581036#1"/>
    <trip id="veh123" type="veh_passenger" depart="499.46" departLane="best" from="4235995#2" to="-4235959"/>
    <trip id="veh125" type="veh_passenger" depart="507.58" departLane="best" from="-3293406#6" to="-3293402#14"/>
    <trip id="veh126" type="veh_passenger" depart="511.64" departLane="best" from="-4235930#1" to="3293402#13"/>
    <trip id="veh127" type="veh_passenger" depart="515.70" departLane="best" from="4196850" to="-4040882"/>
    <trip id="veh128" type="veh_passenger" depart="519.76" departLane="best" from="37632470#0" to="-4235913#4"/>
    <trip id="veh131" type="veh_passenger" depart="531.94" departLane="best" from="-566807933#17" to="-4235932#0"/>
    <trip id="veh132" type="veh_passenger" depart="536.00" departLane="best" from="-117314056#0" to="4235930#2"/>
    <trip id="veh133" type="veh_passenger" depart="540.06" departLane="best" from="3811741#2" to="-4235913#10"/>
    <trip id="veh134" type="veh_passenger" depart="544.12" departLane="best" from="4235898#11" to="23911368#3"/>
    <trip id="veh135" type="veh_passenger" depart="548.18" departLane="best" from="-566807933#25" to="-143735533#1"/>
    <trip id="veh138" type="veh_passenger" depart="560.37" departLane="best" from="-388118900#0" to="-3293405#3"/>
    <trip id="veh139" type="veh_passenger" depart="564.43" departLane="best" from="-4235969" to="521543291"/>
    <trip id="veh140" type="veh_passenger" depart="568.49" departLane="best" from="4235955" to="44367572#9"/>
    <trip id="veh141" type="veh_passenger" depart="572.55" departLane="best" from="521543291" to="-4196826#2"/>
    <trip id="veh142" type="veh_passenger" depart="576.61" departLane="best" from="-4235898#7" to="-3292985#2"/>
    <trip id="veh143" type="veh_passenger" depart="580.67" departLane="best" from="4235941#0" to="4678116#1"/>
    <trip id="veh144" type="veh_passenger" depart="584.73" departLane="best" from="-52161483#0" to="3293406#2"/>
    <trip id="veh145" type="veh_passenger" depart="588.79" departLane="best" from="-3986537#0" to="56213864#4"/>
    <trip id="veh146" type="veh_passenger" depart="592.85" departLane="best" from="451354451#4" to="833581034#1"/>
    <trip id="veh147" type="veh_passenger" depart="596.91" departLane="best" from="4235978" to="4604187#6"/>
    <trip id="veh148" type="veh_passenger" depart="600.97" departLane="best" from="-171273437#0" to="4196915#0"/>
    <trip id="veh149" type="veh_passenger" depart="605.03" departLane="best" from="-4236010" to="56213864#4"/>
    <trip id="veh150" type="veh_passenger" depart="609.09" departLane="best" from="4235968#1" to="451354451#3"/>
    <trip id="veh151" type="veh_passenger" depart="613.15" departLane="best" from="4235978" to="-4235913#7"/>
    <trip id="veh152" type="veh_passenger" depart="617.22" departLane="best" from="4235947#5" to="-3293397#2"/>
    <trip id="veh153" type="veh_passenger" depart="621.28" departLane="best" from="4604025#2" to="44367572#6"/>
    <trip id="veh154" type="veh_passenger" depart="625.34" departLane="best" from="-4196853" to="4235995#1"/>
    <trip id="veh155" type="veh_passenger" depart="629.40" departLane="best" from="-833581034#1" to="-4235968#2"/>
    <trip id="veh156" type="veh_passenger" depart="633.46" departLane="best" from="4235954" to="-4196898"/>
    <trip id="veh158" type="veh_passenger" depart="641.58" departLane="best" from="-4236006#7" to="451354451#4"/>
    <trip id="veh159" type="veh_passenger" depart="645.64" departLane="best" from="723653652#6" to="-4235934"/>
    <trip id="veh160" type="veh_passenger" depart="649.70" departLane="best" from="3904050#0" to="-52161482#1"/>
    <trip id="veh161" type="veh_passenger" depart="653.76" departLane="best" from="833581035#2" to="23911347#18"/>
    <trip id="veh162" type="veh_passenger" depart="657.82" departLane="best" from="566807933#17" to="-3293402#14"/>
    <trip id="veh164" type="veh_passenger" depart="665.94" departLane="best" from="-3293397#2" to="-58073483#1"/>
    <trip id="veh165" type="veh_passenger" depart="670.00" departLane="best" from="4196904#1" to="-4235978"/>
    <trip id="veh166" type="veh_passenger" depart="674.06" departLane="best" from="3293402#15" to="171273437#2"/>
    <trip id="veh167" type="veh_passenger" depart="678.12" departLane="best" from="-4604187#6" to="269001813#3"/>
    <trip id="veh168" type="veh_passenger" depart="682.19" departLane="best" from="-4235905#0" to="4196833#1"/>
    <trip id="veh169" type="veh_passenger" depart="686.25" departLane="best" from="-116296501#0" to="56213864#1"/>
    <trip id="veh170" type="veh_passenger" depart="690.31" departLane="best" from="23911347#5" to="4196853"/>
    <trip id="veh172" type="veh_passenger" depart="698.43" departLane="best" from="-44367572#9" to="-24270504#0"/>
    <trip id="veh173" type="veh_passenger" depart="702.49" departLane="best" from="3995583#0" to="-4236007#1"/>
    <trip id="veh174" type="veh_passenger" depart="706.55" departLane="best" from="-4235978" to="436110099#4"/>
    <trip id="veh175" type="veh_passenger" depart="710.61" departLane="best" from="4196856#0" to="-4235960#1"/>
    <trip id="veh176" type="veh_passenger" depart="714.67" departLane="best" from="-4235975#1" to="-53255194#1"/>
    <trip id="veh177" type="veh_passenger" depart="718.73" departLane="best" from="-52161482#3" to="-4235948#4"/>
    <trip id="veh178" type="veh_passenger" depart="722.79" departLane="best" from="-3293405#3" to="-566807933#1"/>
    <trip id="veh180" type="veh_passenger" depart="730.91" departLane="best" from="521543293" to="3293402#9"/>
    <trip id="veh181" type="veh_passenger" depart="734.97" departLane="best" from="-4235960#2" to="23911352#3"/>
    <trip id="veh182" type="veh_passenger" depart="739.03" departLane="best" from="-108856410" to="-4235947#2"/>
    <trip id="veh184" type="veh_passenger" depart="747.16" departLane="best" from="3993181#1" to="-833581035#1"/>
    <trip id="veh185" type="veh_passenger" depart="751.22" departLane="best" from="-723653652#0" to="-4196836"/>
    <trip id="veh186" type="veh_passenger" depart="755.28" departLane="best" from="4235955" to="-3993184#0"/>
    <trip id="veh187" type="veh_passenger" depart="759.34" departLane="best" from="3752105#1" to="-4236014#0"/>
    <trip id="veh188" type="veh_passenger" depart="763.40" departLane="best" from="4236003#1" to="4235903#1"/>
    <trip id="veh190" type="veh_passenger" depart="771.52" departLane="best" from="-4235898#13" to="-833581038#0"/>
    <trip id="veh192" type="veh_passenger" depart="779.64" departLane="best" from="-56213864#1" to="3374382#3"/>
    <trip id="veh194" type="veh_passenger" depart="787.76" departLane="best" from="143735536#0" to="-4235898#12"/>
    <trip id="veh196" type="veh_passenger" depart="795.88" departLane="best" from="4235902#3" to="4235930#1"/>
    <trip id="veh197" type="veh_passenger" depart="799.94" departLane="best" from="-3292986#1" to="-566807933#19"/>
    <trip id="veh199" type="veh_passenger" depart="808.06" departLane="best" from="171273440#0" to="-23911347#9"/>
    <trip id="veh200" type="veh_passenger" depart="812.13" departLane="best" from="-4235898#7" to="436110099#4"/>
    <trip id="veh201" type="veh_passenger" depart="816.19" departLane="best" from="-83143610#0" to="4235968#0"/>
    <trip id="veh203" type="veh_passenger" depart="824.31" departLane="best" from="3292986#0" to="58073483#1"/>
    <trip id="veh204" type="veh_passenger" depart="828.37" departLane="best" from="49996514#0" to="3293402#5"/>
    <trip id="veh205" type="veh_passenger" depart="832.43" departLane="best" from="4196853" to="165546945#0"/>
    <trip id="veh206" type="veh_passenger" depart="836.49" departLane="best" from="4236012" to="23911352#3"/>
    <trip id="veh207" type="veh_passenger" depart="840.55" departLane="best" from="513363013#1" to="4235898#2"/>
    <trip id="veh208" type="veh_passenger" depart="844.61" departLane="best" from="-833581038#0" to="-4235909#0"/>
    <trip id="veh209" type="veh_passenger" depart="848.67" departLane="best" from="-4235898#4" to="3811741#2"/>
    <trip id="veh210" type="veh_passenger" depart="852.73" departLane="best" from="4235913#8" to="171273440#5"/>
    <trip id="veh211" type="veh_passenger" depart="856.79" departLane="best" from="3301612#2" to="-4235930#4"/>
    <trip id="veh212" type="veh_passenger" depart="860.85" departLane="best" from="-269001180#1" to="-4235947#0"/>
    <trip id="veh213" type="veh_passenger" depart="864.91" departLane="best" from="-4235930#0" to="-4235995#1"/>
    <trip id="veh214" type="veh_passenger" depart="868.97" departLane="best" from="23911347#7" to="-3374382#2"/>
    <trip id="veh215" type="veh_passenger" depart="873.03" departLane="best" from="-4196904#2" to="4040879#0"/>
    <trip id="veh216" type="veh_passenger" depart="877.10" departLane="best" from="4196826#2" to="-23911371#0"/>
    <trip id="veh217" type="veh_passenger" depart="881.16" departLane="best" from="-53255194#0" to="23911351#0"/>
    <trip id="veh218" type="veh_passenger" depart="885.22" departLane="best" from="3291976#1" to="4040880"/>
    <trip id="veh219" type="veh_passenger" depart="889.28" departLane="best" from="44367572#3" to="4235913#8"/>
    <trip id="veh221" type="veh_passenger" depart="897.40" departLane="best" from="-436110099#4" to="4235905#1"/>
    <trip id="veh222" type="veh_passenger" depart="901.46" departLane="best" from="44367572#0" to="690156445#1"/>
    <trip id="veh223" type="veh_passenger" depart="905.52" departLane="best" from="-56213864#5" to="4235898#7"/>
    <trip id="veh224" type="veh_passenger" depart="909.58" departLane="best" from="23911352#1" to="3293402#11"/>
    <trip id="veh225" type="veh_passenger" depart="913.64" departLane="best" from="-58073483#2" to="-171273440#5"/>
    <trip id="veh227" type="veh_passenger" depart="921.76" departLane="best" from="-52161482#4" to="-3993181#3"/>
    <trip id="veh228" type="veh_passenger" depart="925.82" departLane="best" from="-833581035#2" to="-3293405#3"/>
    <trip id="veh229" type="veh_passenger" depart="929.88" departLane="best" from="3293406#4" to="-171273440#2"/>
    <trip id="veh231" type="veh_passenger" depart="938.00" departLane="best" from="-171273440#2" to="3904050#1"/>
    <trip id="veh232" type="veh_passenger" depart="942.07" departLane="best" from="-3301612#1" to="-833581034#2"/>
    <trip id="veh233" type="veh_passenger" depart="946.13" departLane="best" from="-23911351#0" to="-4604025#7"/>
    <trip id="veh234" type="veh_passenger" depart="950.19" departLane="best" from="-4196833#0" to="-4236006#6"/>
    <trip id="veh235" type="veh_passenger" depart="954.25" departLane="best" from="4235913#3" to="-4604025#7"/>
    <trip id="veh236" type="veh_passenger" depart="958.31" departLane="best" from="4235904#1" to="4236014#0"/>
    <trip id="veh237" type="veh_passenger" depart="962.37" departLane="best" from="-4235902#3" to="-269001812#1"/>
    <trip id="veh239" type="veh_passenger" depart="970.49" departLane="best" from="941604650#2" to="-436110099#2"/>
    <trip id="veh240" type="veh_passenger" depart="974.55" departLane="best" from="3993178#2" to="4235941#1"/>
    <trip id="veh245" type="veh_passenger" depart="994.85" departLane="best" from="4040907#0" to="4235916#1"/>
    <trip id="veh246" type="veh_passenger" depart="998.91" departLane="best" from="-3993181#6" to="3293402#18"/>
    <trip id="veh247" type="veh_passenger" depart="1002.97" departLane="best" from="4235898#8" to="-3293402#13"/>
    <trip id="veh248" type="veh_passenger" depart="1007.04" departLane="best" from="4236003#2" to="723653652#5"/>
    <trip id="veh249" type="veh_passenger" depart="1011.10" departLane="best" from="-3293397#2" to="-171273440#0"/>
    <trip id="veh251" type="veh_passenger" depart="1019.22" departLane="best" from="4196849#6" to="-268366593#1"/>
    <trip id="veh253" type="veh_passenger" depart="1027.34" departLane="best" from="-3292166#8" to="4235930#4"/>
    <trip id="veh254" type="veh_passenger" depart="1031.40" departLane="best" from="440477236#0" to="3293402#0"/>
    <trip id="veh255" type="veh_passenger" depart="1035.46" departLane="best" from="4235945" to="-436110096#8"/>
    <trip id="veh256" type="veh_passenger" depart="1039.52" departLane="best" from="-566807933#3" to="-451354451#7"/>
    <trip id="veh257" type="veh_passenger" depart="1043.58" departLane="best" from="170754777" to="-436110096#10"/>
    <trip id="veh258" type="veh_passenger" depart="1047.64" departLane="best" from="43859737" to="4236006#2"/>
    <trip id="veh259" type="veh_passenger" depart="1051.70" departLane="best" from="-3292986#0" to="723653652#3"/>
    <trip id="veh260" type="veh_passenger" depart="1055.76" departLane="best" from="37632470#2" to="4236008"/>
    <trip id="veh261" type="veh_passenger" depart="1059.82" departLane="best" from="4196831" to="-58073483#2"/>
    <trip id="veh262" type="veh_passenger" depart="1063.88" departLane="best" from="4196909" to="723653652#6"/>
    <trip id="veh263" type="veh_passenger" depart="1067.94" departLane="best" from="-4235929#0" to="4235976#1"/>
    <trip id="veh264" type="veh_passenger" depart="1072.01" departLane="best" from="-58073483#2" to="4196904#4"/>
    <trip id="veh265" type="veh_passenger" depart="1076.07" departLane="best" from="-4235914" to="440477236#3"/>
    <trip id="veh266" type="veh_passenger" depart="1080.13" departLane="best" from="4236012" to="-27048415"/>
    <trip id="veh267" type="veh_passenger" depart="1084.19" departLane="best" from="4604187#6" to="-4235898#12"/>
    <trip id="veh268" type="veh_passenger" depart="1088.25" departLane="best" from="-4604025#7" to="-171273440#5"/>
    <trip id="veh270" type="veh_passenger" depart="1096.37" departLane="best" from="-4196833#1" to="4235959"/>
    <trip id="veh271" type="veh_passenger" depart="1100.43" departLane="best" from="-436110096#1" to="4604187#3"/>
    <trip id="veh272" type="veh_passenger" depart="1104.49" departLane="best" from="4040907#2" to="-4235931#1"/>
    <trip id="veh273" type="veh_passenger" depart="1108.55" departLane="best" from="-143735533#1" to="58073482#0"/>
    <trip id="veh274" type="veh_passenger" depart="1112.61" departLane="best" from="-269001813#4" to="4196856#0"/>
    <trip id="veh277" type="veh_passenger" depart="1124.79" departLane="best" from="143735533#1" to="4235948#3"/>
    <trip id="veh278" type="veh_passenger" depart="1128.85" departLane="best" from="-3291925" to="-4196852"/>
    <trip id="veh281" type="veh_passenger" depart="1141.04" departLane="best" from="23911347#1" to="-566807933#19"/>
    <trip id="veh282" type="veh_passenger" depart="1145.10" departLane="best" from="4235898#5" to="-4236008"/>
    <trip id="veh283" type="veh_passenger" depart="1149.16" departLane="best" from="4040907#4" to="-4235929#1"/>
    <trip id="veh284" type="veh_passenger" depart="1153.22" departLane="best" from="-4235902#2" to="-3293402#3"/>
    <trip id="veh286" type="veh_passenger" depart="1161.34" departLane="best" from="23911347#18" to="4235913#4"/>
    <trip id="veh288" type="veh_passenger" depart="1169.46" departLane="best" from="117314056#1" to="4196900#0"/>
    <trip id="veh289" type="veh_passenger" depart="1173.52" departLane="best" from="833581034#2" to="176821652#1"/>
    <trip id="veh290" type="veh_passenger" depart="1177.58" departLane="best" from="-4235941#1" to="-3292166#6"/>
    <trip id="veh293" type="veh_passenger" depart="1189.76" departLane="best" from="23911347#15" to="-4235930#4"/>
    <trip id="veh294" type="veh_passenger" depart="1193.82" departLane="best" from="833581034#0" to="23911369#1"/>
    <trip id="veh295" type="veh_passenger" depart="1197.88" departLane="best" from="4040882" to="-3293405#0"/>
    <trip id="veh296" type="veh_passenger" depart="1201.95" departLane="best" from="4604025#0" to="143735533#1"/>
    <trip id="veh297" type="veh_passenger" depart="1206.01" departLane="best" from="4604025#2" to="269001812#1"/>
    <trip id="veh298" type="veh_passenger" depart="1210.07" departLane="best" from="-833581035#5" to="-719669895"/>
    <trip id="veh300" type="veh_passenger" depart="1218.19" departLane="best" from="4236006#2" to="-52161482#2"/>
    <trip id="veh302" type="veh_passenger" depart="1226.31" departLane="best" from="-23911352#0" to="-388118900#1"/>
    <trip id="veh303" type="veh_passenger" depart="1230.37" departLane="best" from="24270504#1" to="-4235968#0"/>
    <trip id="veh304" type="veh_passenger" depart="1234.43" departLane="best" from="840595006#1" to="-3293402#19"/>
    <trip id="veh305" type="veh_passenger" depart="1238.49" departLane="best" from="4235913#7" to="3293402#15"/>
    <trip id="veh306" type="veh_passenger" depart="1242.55" departLane="best" from="4235948#0" to="-4196896#0"/>
    <trip id="veh307" type="veh_passenger" depart="1246.61" departLane="best" from="173463226#2" to="-723653652#6"/>
    <trip id="veh308" type="veh_passenger" depart="1250.67" departLane="best" from="-723653652#1" to="44367572#8"/>
    <trip id="veh309" type="veh_passenger" depart="1254.73" departLane="best" from="833581038#0" to="-4235968#2"/>
    <trip id="veh310" type="veh_passenger" depart="1258.79" departLane="best" from="4235898#10" to="58073482#0"/>
    <trip id="veh311" type="veh_passenger" depart="1262.85" departLane="best" from="-4040907#4" to="-4196831"/>
    <trip id="veh312" type="veh_passenger" depart="1266.92" departLane="best" from="3993183" to="-3986537#1"/>