<?xml version="1.0" encoding="UTF-8"?>

<!-- generated on 2022-05-15 15:55:23 by Eclipse SUMO netedit Version 1.10.0
<configuration xmlns:xsi="http://www.w3.org/2001/XMLSchema-instance" xsi:noNamespaceSchemaLocation="http://sumo.dlr.de/xsd/netconvertConfiguration.xsd">

    <input>
        <sumo-net-file value="C:\Users\William\Documents\GitHub\fyp\simulations\veins_inet\Demo\demo.net.xml"/>
    </input>

    <output>
        <output-file value="C:\Users\William\Documents\GitHub\fyp\simulations\veins_inet\Demo\demo.net.xml"/>
    </output>

    <processing>
        <geometry.min-radius.fix.railways value="false"/>
        <geometry.max-grade.fix value="false"/>
        <offset.disable-normalization value="true"/>
        <lefthand value="false"/>
    </processing>

    <junctions>
        <no-turnarounds value="true"/>
        <junctions.corner-detail value="5"/>
        <junctions.limit-turn-speed value="5.5"/>
        <rectangular-lane-cut value="false"/>
    </junctions>

    <pedestrian>
        <walkingareas value="false"/>
    </pedestrian>

    <netedit>
        <route-files value="C:\Users\William\Documents\GitHub\fyp\simulations\veins_inet\Demo\demo.rou.xml"/>
    </netedit>

    <report>
        <aggregate-warnings value="5"/>
    </report>

</configuration>
-->

<routes xmlns:xsi="http://www.w3.org/2001/XMLSchema-instance" xsi:noNamespaceSchemaLocation="http://sumo.dlr.de/xsd/routes_file.xsd">
    <trip id="vehicle_0" depart="0.00" from="gneE0" to="gneE3" via="gneE1 gneE2 gneE3 gneE0 gneE1 gneE2 gneE3 gneE0 gneE1 gneE2 gneE3 gneE0 gneE1 gneE2"/>
    <trip id="vehicle_1" depart="0.00" from="gneE2" to="gneE1" via="gneE3 gneE0 gneE1 gneE2 gneE3 gneE0 gneE1 gneE2 gneE3 gneE0"/>
</routes>
