<?xml version="1.0" encoding="UTF-8"?>

<!-- generated on 2022-05-15 17:21:24 by Eclipse SUMO netedit Version 1.10.0
<configuration xmlns:xsi="http://www.w3.org/2001/XMLSchema-instance" xsi:noNamespaceSchemaLocation="http://sumo.dlr.de/xsd/netconvertConfiguration.xsd">

    <input>
        <sumo-net-file value="C:\Users\William\Documents\GitHub\fyp\simulations\veins_inet\Demo\demo.net.xml"/>
    </input>

    <output>
        <output-file value="C:\Users\William\Documents\GitHub\fyp\simulations\veins_inet\Demo\demo.net.xml"/>
    </output>

    <processing>
        <geometry.min-radius.fix.railways value="false"/>
        <geometry.max-grade.fix value="false"/>
        <offset.disable-normalization value="true"/>
        <lefthand value="false"/>
    </processing>

    <junctions>
        <no-turnarounds value="true"/>
        <junctions.corner-detail value="5"/>
        <junctions.limit-turn-speed value="5.5"/>
        <rectangular-lane-cut value="false"/>
    </junctions>

    <pedestrian>
        <walkingareas value="false"/>
    </pedestrian>

    <report>
        <aggregate-warnings value="5"/>
    </report>

</configuration>
-->

<net version="1.9" junctionCornerDetail="5" limitTurnSpeed="5.50" xmlns:xsi="http://www.w3.org/2001/XMLSchema-instance" xsi:noNamespaceSchemaLocation="http://sumo.dlr.de/xsd/net_file.xsd">

    <location netOffset="0.00,0.00" convBoundary="-36.18,0.00,120.12,92.50" origBoundary="-10000000000.00,-10000000000.00,10000000000.00,10000000000.00" projParameter="!"/>

    <edge id=":gneJ0_0" function="internal">
        <lane id=":gneJ0_0_0" index="0" speed="13.89" length="0.85" shape="0.01,94.10 -0.24,94.10 -0.41,94.07 -0.58,94.01 -0.80,93.89"/>
    </edge>
    <edge id=":gneJ1_0" function="internal">
        <lane id=":gneJ1_0_0" index="0" speed="13.89" length="0.90" shape="-0.85,-1.36 -0.62,-1.49 -0.45,-1.57 -0.27,-1.59 0.00,-1.60"/>
    </edge>
    <edge id=":gneJ2_0" function="internal">
        <lane id=":gneJ2_0_0" index="0" speed="13.89" length="0.71" shape="84.00,-1.60 84.21,-1.60 84.35,-1.58 84.49,-1.53 84.68,-1.45"/>
    </edge>
    <edge id=":gneJ3_0" function="internal">
        <lane id=":gneJ3_0_0" index="0" speed="13.89" length="0.75" shape="84.73,93.42 84.53,93.52 84.39,93.57 84.23,93.60 84.01,93.60"/>
    </edge>

    <edge id="gneE0" from="gneJ0" to="gneJ1" priority="-1" shape="0.00,92.50 -26.98,77.05 -36.18,45.84 -26.34,16.40 0.00,0.00">
        <lane id="gneE0_0" index="0" speed="13.89" length="129.14" shape="-0.80,93.89 -28.33,78.12 -37.86,45.81 -27.67,15.35 -0.85,-1.36"/>
    </edge>
    <edge id="gneE1" from="gneJ1" to="gneJ2" priority="-1">
        <lane id="gneE1_0" index="0" speed="13.89" length="84.00" shape="0.00,-1.60 84.00,-1.60"/>
    </edge>
    <edge id="gneE2" from="gneJ2" to="gneJ3" priority="-1" shape="84.00,0.00 112.91,13.60 120.12,45.78 112.90,77.17 84.00,92.00">
        <lane id="gneE2_0" index="0" speed="13.89" length="133.40" shape="84.68,-1.45 114.30,12.49 121.76,45.78 114.29,78.25 84.73,93.42"/>
    </edge>
    <edge id="gneE3" from="gneJ3" to="gneJ0" priority="-1">
        <lane id="gneE3_0" index="0" speed="13.89" length="84.00" shape="84.01,93.60 0.01,94.10"/>
    </edge>

    <junction id="gneJ0" type="priority" x="0.00" y="92.50" incLanes="gneE3_0" intLanes=":gneJ0_0_0" shape="0.02,95.70 0.00,92.50 -1.59,95.28 -1.04,95.57 -0.83,95.65 -0.61,95.68 -0.34,95.70">
        <request index="0" response="0" foes="0" cont="0"/>
    </junction>
    <junction id="gneJ1" type="priority" x="0.00" y="0.00" incLanes="gneE0_0" intLanes=":gneJ1_0_0" shape="0.00,0.00 0.00,-3.20 -0.66,-3.18 -0.90,-3.13 -1.12,-3.05 -1.37,-2.91 -1.69,-2.72">
        <request index="0" response="0" foes="0" cont="0"/>
    </junction>
    <junction id="gneJ2" type="priority" x="84.00" y="0.00" incLanes="gneE1_0" intLanes=":gneJ2_0_0" shape="84.00,0.00 85.36,-2.90 84.88,-3.11 84.71,-3.16 84.52,-3.19 84.30,-3.20 84.00,-3.20">
        <request index="0" response="0" foes="0" cont="0"/>
    </junction>
    <junction id="gneJ3" type="priority" x="84.00" y="92.00" incLanes="gneE2_0" intLanes=":gneJ3_0_0" shape="85.46,94.85 84.00,92.00 84.02,95.20 84.58,95.18 84.77,95.15 84.96,95.09 85.18,94.99">
        <request index="0" response="0" foes="0" cont="0"/>
    </junction>

    <connection from="gneE0" to="gneE1" fromLane="0" toLane="0" via=":gneJ1_0_0" dir="s" state="M"/>
    <connection from="gneE1" to="gneE2" fromLane="0" toLane="0" via=":gneJ2_0_0" dir="s" state="M"/>
    <connection from="gneE2" to="gneE3" fromLane="0" toLane="0" via=":gneJ3_0_0" dir="s" state="M"/>
    <connection from="gneE3" to="gneE0" fromLane="0" toLane="0" via=":gneJ0_0_0" dir="s" state="M"/>

    <connection from=":gneJ0_0" to="gneE0" fromLane="0" toLane="0" dir="s" state="M"/>
    <connection from=":gneJ1_0" to="gneE1" fromLane="0" toLane="0" dir="s" state="M"/>
    <connection from=":gneJ2_0" to="gneE2" fromLane="0" toLane="0" dir="s" state="M"/>
    <connection from=":gneJ3_0" to="gneE3" fromLane="0" toLane="0" dir="s" state="M"/>

</net>
