<?xml version="1.0" encoding="UTF-8"?>

<!-- generated on 2022-05-15 16:00:31 by Eclipse SUMO netedit Version 1.10.0
<configuration xmlns:xsi="http://www.w3.org/2001/XMLSchema-instance" xsi:noNamespaceSchemaLocation="http://sumo.dlr.de/xsd/netconvertConfiguration.xsd">

    <input>
        <sumo-net-file value="C:\Users\William\Documents\GitHub\fyp\simulations\veins_inet\Demo\demo.net.xml"/>
    </input>

    <output>
        <output-file value="C:\Users\William\Documents\GitHub\fyp\simulations\veins_inet\Demo\demo.net.xml"/>
    </output>

    <processing>
        <geometry.min-radius.fix.railways value="false"/>
        <geometry.max-grade.fix value="false"/>
        <offset.disable-normalization value="true"/>
        <lefthand value="false"/>
    </processing>

    <junctions>
        <no-turnarounds value="true"/>
        <junctions.corner-detail value="5"/>
        <junctions.limit-turn-speed value="5.5"/>
        <rectangular-lane-cut value="false"/>
    </junctions>

    <pedestrian>
        <walkingareas value="false"/>
    </pedestrian>

    <report>
        <aggregate-warnings value="5"/>
    </report>

</configuration>
-->

<net version="1.9" junctionCornerDetail="5" limitTurnSpeed="5.50" xmlns:xsi="http://www.w3.org/2001/XMLSchema-instance" xsi:noNamespaceSchemaLocation="http://sumo.dlr.de/xsd/net_file.xsd">

    <location netOffset="0.00,0.00" convBoundary="0.00,0.00,100.00,100.00" origBoundary="-10000000000.00,-10000000000.00,10000000000.00,10000000000.00" projParameter="!"/>

    <edge id=":gneJ0_0" function="internal">
        <lane id=":gneJ0_0_0" index="0" speed="3.90" length="2.58" shape="0.00,101.60 -0.70,101.50 -1.20,101.20 -1.50,100.70 -1.60,100.00"/>
    </edge>
    <edge id=":gneJ1_0" function="internal">
        <lane id=":gneJ1_0_0" index="0" speed="3.90" length="2.58" shape="-1.60,0.00 -1.50,-0.70 -1.20,-1.20 -0.70,-1.50 0.00,-1.60"/>
    </edge>
    <edge id=":gneJ2_0" function="internal">
        <lane id=":gneJ2_0_0" index="0" speed="3.90" length="2.58" shape="100.00,-1.60 100.70,-1.50 101.20,-1.20 101.50,-0.70 101.60,0.00"/>
    </edge>
    <edge id=":gneJ3_0" function="internal">
        <lane id=":gneJ3_0_0" index="0" speed="3.90" length="2.58" shape="101.60,100.00 101.50,100.70 101.20,101.20 100.70,101.50 100.00,101.60"/>
    </edge>

    <edge id="gneE0" from="gneJ0" to="gneJ1" priority="-1">
        <lane id="gneE0_0" index="0" speed="13.89" length="100.00" shape="-1.60,100.00 -1.60,0.00"/>
    </edge>
    <edge id="gneE1" from="gneJ1" to="gneJ2" priority="-1">
        <lane id="gneE1_0" index="0" speed="13.89" length="100.00" shape="0.00,-1.60 100.00,-1.60"/>
    </edge>
    <edge id="gneE2" from="gneJ2" to="gneJ3" priority="-1">
        <lane id="gneE2_0" index="0" speed="13.89" length="100.00" shape="101.60,0.00 101.60,100.00"/>
    </edge>
    <edge id="gneE3" from="gneJ3" to="gneJ0" priority="-1">
        <lane id="gneE3_0" index="0" speed="13.89" length="100.00" shape="100.00,101.60 0.00,101.60"/>
    </edge>

    <junction id="gneJ0" type="priority" x="0.00" y="100.00" incLanes="gneE3_0" intLanes=":gneJ0_0_0" shape="0.00,103.20 0.00,100.00 -3.20,100.00 -2.84,101.78 -2.40,102.40 -1.78,102.84 -0.98,103.11">
        <request index="0" response="0" foes="0" cont="0"/>
    </junction>
    <junction id="gneJ1" type="priority" x="0.00" y="0.00" incLanes="gneE0_0" intLanes=":gneJ1_0_0" shape="-3.20,0.00 0.00,0.00 0.00,-3.20 -1.78,-2.84 -2.40,-2.40 -2.84,-1.78 -3.11,-0.98">
        <request index="0" response="0" foes="0" cont="0"/>
    </junction>
    <junction id="gneJ2" type="priority" x="100.00" y="0.00" incLanes="gneE1_0" intLanes=":gneJ2_0_0" shape="100.00,0.00 103.20,0.00 102.84,-1.78 102.40,-2.40 101.78,-2.84 100.98,-3.11 100.00,-3.20">
        <request index="0" response="0" foes="0" cont="0"/>
    </junction>
    <junction id="gneJ3" type="priority" x="100.00" y="100.00" incLanes="gneE2_0" intLanes=":gneJ3_0_0" shape="103.20,100.00 100.00,100.00 100.00,103.20 101.78,102.84 102.40,102.40 102.84,101.78 103.11,100.98">
        <request index="0" response="0" foes="0" cont="0"/>
    </junction>

    <connection from="gneE0" to="gneE1" fromLane="0" toLane="0" via=":gneJ1_0_0" dir="l" state="M"/>
    <connection from="gneE1" to="gneE2" fromLane="0" toLane="0" via=":gneJ2_0_0" dir="l" state="M"/>
    <connection from="gneE2" to="gneE3" fromLane="0" toLane="0" via=":gneJ3_0_0" dir="l" state="M"/>
    <connection from="gneE3" to="gneE0" fromLane="0" toLane="0" via=":gneJ0_0_0" dir="l" state="M"/>

    <connection from=":gneJ0_0" to="gneE0" fromLane="0" toLane="0" dir="l" state="M"/>
    <connection from=":gneJ1_0" to="gneE1" fromLane="0" toLane="0" dir="l" state="M"/>
    <connection from=":gneJ2_0" to="gneE2" fromLane="0" toLane="0" dir="l" state="M"/>
    <connection from=":gneJ3_0" to="gneE3" fromLane="0" toLane="0" dir="l" state="M"/>

</net>
