<?xml version="1.0" encoding="UTF-8"?>

<!-- generated on 2022-04-21 17:08:30 by Eclipse SUMO polyconvert Version 1.10.0
<configuration xmlns:xsi="http://www.w3.org/2001/XMLSchema-instance" xsi:noNamespaceSchemaLocation="http://sumo.dlr.de/xsd/polyconvertConfiguration.xsd">

    <input>
        <net-file value="osm.net.xml"/>
        <osm-files value="osm_bbox.osm.xml"/>
        <osm.keep-full-type value="true"/>
        <type-file value="C:\Users\William\src\sumo-1.10.0\data\typemap\osmPolyconvert.typ.xml"/>
    </input>

    <output>
        <output-file value="osm.poly.xml"/>
    </output>

    <processing>
        <poi-layer-offset value="5"/>
    </processing>

    <report>
        <verbose value="true"/>
    </report>

</configuration>
-->

<additional xmlns:xsi="http://www.w3.org/2001/XMLSchema-instance" xsi:noNamespaceSchemaLocation="http://sumo.dlr.de/xsd/additional_file.xsd">
    <location netOffset="-306697.25,-5788507.41" convBoundary="-4392.72,-30697.59,12867.90,14755.56" origBoundary="0.124084,51.935838,0.354931,52.347540" projParameter="+proj=utm +zone=31 +ellps=WGS84 +datum=WGS84 +units=m +no_defs"/>

    <poly id="1005424581" type="building.yes" color="255,230,230" fill="1" layer="-1.00" shape="9247.069785,6250.287975 9258.727881,6246.011893 9253.149928,6230.875520 9245.386521,6233.714787 9248.366353,6241.821480 9244.478044,6243.246930 9247.069785,6250.287975"/>
    <poly id="1009415299" type="landuse.residential" color="235,235,227" fill="1" layer="-3.00" shape="1450.494736,5876.811903 1476.557951,5869.529979 1469.203766,5844.837078 1443.242231,5851.046006 1450.494736,5876.811903"/>
    <poly id="1009415301" type="landuse.residential" color="235,235,227" fill="1" layer="-3.00" shape="1366.127788,5847.460358 1378.442560,5896.938930 1401.362652,5890.535988 1398.077779,5879.672164 1396.799097,5879.822068 1390.863449,5859.116593 1395.586469,5857.930836 1398.548582,5861.190027 1422.550269,5851.493402 1466.542382,5839.995962 1459.971141,5818.223757 1366.127788,5847.460358"/>
    <poly id="1009415309" type="leisure.park" color="207,245,201" fill="1" layer="-2.00" shape="2012.712963,6411.424127 2002.552034,6414.011526 2000.946527,6417.537057 2003.665964,6433.245042 2001.118780,6433.800291 2004.122096,6445.020549 2009.042156,6453.872519 2011.531680,6466.114935 2010.248239,6475.485601 2012.443798,6487.193733 2014.364034,6487.208443 2018.103803,6503.333493 2021.572012,6505.392978 2031.771515,6503.806366 2012.712963,6411.424127"/>
    <poly id="1009415310" type="leisure.park" color="207,245,201" fill="1" layer="-2.00" shape="2165.244718,6302.197483 2168.597614,6321.400024 2195.001382,6315.901530 2196.373482,6322.229429 2201.572475,6321.170775 2196.005468,6302.655245 2191.689043,6298.980311 2190.529220,6294.960510 2168.915235,6298.714596 2165.244718,6302.197483"/>
    <poly id="1009415311" type="leisure.park" color="207,245,201" fill="1" layer="-2.00" shape="2072.726642,6316.792550 2073.941239,6322.224498 2077.048000,6324.298023 2092.913152,6322.403105 2104.172578,6319.773379 2105.509328,6328.185085 2111.135905,6327.054101 2114.690590,6326.404229 2116.950395,6330.247801 2138.172634,6327.143400 2149.229376,6331.103070 2157.764647,6326.752582 2158.849133,6321.587994 2155.967465,6303.970820 2152.525868,6302.600646 2072.726642,6316.792550"/>
    <poly id="1009415312" type="leisure.pitch" color="207,245,201" fill="1" layer="-2.00" shape="1811.399887,6211.681034 1839.893684,6219.552109 1844.060177,6204.546090 1815.566305,6196.674989 1811.399887,6211.681034"/>
    <poly id="1009415313" type="leisure.pitch" color="207,245,201" fill="1" layer="-2.00" shape="1806.662131,6229.571232 1835.155837,6237.442277 1839.322296,6222.436253 1810.828946,6214.576301 1806.662131,6229.571232"/>
    <poly id="1023275530" type="waterway.ditch" color="181,209,209" fill="0" layer="-4.00" shape="3073.762130,3176.591597 3095.495854,3169.541521 3102.481279,3165.252703 3112.652772,3153.335716 3120.638821,3146.447171 3132.687252,3140.315519 3143.652099,3129.826892 3158.676327,3110.418204"/>
    <poly id="1043542300" type="man_made.wastewater_plant" color="255,230,230" fill="1" layer="-1.00" shape="8393.252080,4329.114957 8338.839419,4378.876826 8314.626079,4353.815785 8371.693985,4306.526530 8393.252080,4329.114957"/>
    <poly id="1053611706" type="waterway.ditch" color="181,209,209" fill="0" layer="-4.00" shape="6650.854934,1321.084113 6628.686657,1302.255521 6532.508547,1222.002891 6520.297409,1218.611091"/>
    <poly id="1053611707" type="waterway.stream" color="181,209,209" fill="0" layer="-4.00" shape="6846.130732,998.210323 6828.527885,1003.272261 6806.706056,1013.058805 6789.217987,1035.855202 6750.956619,1057.241304 6696.445277,1085.454194 6634.075263,1133.729571 6592.241689,1167.511854 6531.482236,1190.472762 6521.313488,1205.677923 6518.631349,1209.620910 6520.297409,1218.611091 6516.258720,1219.587604 6499.125264,1217.495258 6475.566809,1234.854208 6446.909494,1257.884503 6425.388513,1280.656516 6381.799371,1306.456151"/>
    <poly id="1053611710" type="building.stable" color="255,230,230" fill="1" layer="-1.00" shape="6369.305194,538.673214 6366.655520,530.087696 6363.031926,531.204515 6365.674357,539.779169 6369.305194,538.673214"/>
    <poly id="105855559" type="leisure.park" color="207,245,201" fill="1" layer="-2.00" shape="6341.361510,685.847978 6407.982122,657.307551 6413.491331,665.918696 6413.474576,668.190953 6398.281165,678.764472 6411.427003,706.139830 6410.125592,710.431581 6405.517939,714.280318 6403.592632,714.909817 6393.265995,709.843566 6388.048809,718.013616 6382.941747,719.141930 6363.791793,717.304295 6341.361510,685.847978"/>
    <poly id="105855797" type="landuse.cemetery" color="194,194,130" fill="1" layer="-3.00" shape="6298.979617,830.573321 6290.974154,724.621644 6346.914855,795.166140 6298.979617,830.573321"/>
    <poly id="113470930" type="man_made.wastewater_plant" color="255,230,230" fill="1" layer="-1.00" shape="2424.619225,6869.516709 2436.204571,6948.157424 2308.224167,6966.948293 2305.147317,6967.401392 2292.617273,6882.405269 2423.683601,6863.160758 2424.619225,6869.516709"/>
    <poly id="121119707" type="building.yes" color="255,230,230" fill="1" layer="-1.00" shape="2176.887643,5014.847775 2181.475671,5012.621259 2177.881973,5005.221140 2173.287115,5007.447923 2176.887643,5014.847775"/>
    <poly id="121119710" type="building.yes" color="255,230,230" fill="1" layer="-1.00" shape="2246.360920,5152.241594 2241.360805,5153.704467 2243.556436,5161.180959 2248.556544,5159.718088 2246.360920,5152.241594"/>
    <poly id="121119711" type="building.yes" color="255,230,230" fill="1" layer="-1.00" shape="2371.880350,5399.008729 2378.309872,5395.463968 2366.470460,5374.128248 2358.254889,5378.666349 2367.097463,5394.594384 2368.883486,5393.601062 2371.880350,5399.008729"/>
    <poly id="121119712" type="building.yes" color="255,230,230" fill="1" layer="-1.00" shape="2145.269618,4987.139382 2155.564863,4982.999355 2150.018331,4969.282686 2139.830513,4973.374022 2141.554030,4977.650415 2147.542970,4975.247172 2149.735130,4980.685863 2143.652389,4983.137277 2145.269618,4987.139382"/>
    <poly id="121119720" type="building.yes" color="255,230,230" fill="1" layer="-1.00" shape="2151.157455,5062.314069 2157.271203,5059.783506 2155.432526,5055.355658 2149.318774,5057.886224 2151.157455,5062.314069"/>
    <poly id="121119722" type="leisure.slipway" color="207,245,201" fill="0" layer="-2.00" shape="2225.813600,5187.947836 2226.952794,5202.915221"/>
    <poly id="121119724" type="building.yes" color="255,230,230" fill="1" layer="-1.00" shape="2177.174457,4866.091976 2166.015187,4873.695278 2170.824312,4880.714296 2181.984002,4873.122124 2177.174457,4866.091976"/>
    <poly id="121119726" type="building.yes" color="255,230,230" fill="1" layer="-1.00" shape="2187.832234,5127.132764 2181.403326,5130.700005 2183.217263,5133.959527 2189.639345,5130.392552 2187.832234,5127.132764"/>
    <poly id="121119731" type="building.yes" color="255,230,230" fill="1" layer="-1.00" shape="2196.037590,5141.225469 2193.893883,5137.566663 2188.360424,5140.787450 2190.504134,5144.446253 2196.037590,5141.225469"/>
    <poly id="121119735" type="building.yes" color="255,230,230" fill="1" layer="-1.00" shape="2223.442711,4900.116127 2234.931242,4888.480099 2230.598187,4884.226635 2219.109654,4895.862673 2223.442711,4900.116127"/>
    <poly id="121119736" type="building.yes" color="255,230,230" fill="1" layer="-1.00" shape="2197.035931,5155.552407 2202.498996,5152.278672 2199.862936,5147.903926 2194.399438,5151.166544 2197.035931,5155.552407"/>
    <poly id="121119738" type="building.yes" color="255,230,230" fill="1" layer="-1.00" shape="2123.545232,4966.643163 2127.032934,4964.236452 2118.600475,4952.056895 2115.112337,4954.452493 2123.545232,4966.643163"/>
    <poly id="121119740" type="building.yes" color="255,230,230" fill="1" layer="-1.00" shape="2131.068175,4979.336769 2136.284473,4976.039111 2129.299042,4965.050795 2124.082735,4968.348460 2131.068175,4979.336769"/>
    <poly id="121119741" type="building.yes" color="255,230,230" fill="1" layer="-1.00" shape="2140.506699,4953.759475 2129.646837,4958.144097 2131.762615,4963.374151 2142.629289,4958.989269 2140.506699,4953.759475"/>
    <poly id="121119743" type="building.yes" color="255,230,230" fill="1" layer="-1.00" shape="2145.554769,5051.383603 2152.473678,5048.821883 2150.765007,5044.221966 2143.845662,5046.772569 2145.554769,5051.383603"/>
    <poly id="121119746" type="building.yes" color="255,230,230" fill="1" layer="-1.00" shape="2142.922132,5037.208987 2151.338213,5039.255365 2152.767048,5033.442726 2144.344136,5031.396610 2142.922132,5037.208987"/>
    <poly id="121119748" type="building.yes" color="255,230,230" fill="1" layer="-1.00" shape="2188.735215,5009.500751 2193.048715,5007.596676 2189.988288,5000.732726 2185.682037,5002.647659 2188.735215,5009.500751"/>
    <poly id="121119749" type="building.yes" color="255,230,230" fill="1" layer="-1.00" shape="2294.637743,5346.637164 2301.808708,5346.716272 2301.870170,5341.413122 2294.699627,5341.345134 2294.637743,5346.637164"/>
    <poly id="121119751" type="building.yes" color="255,230,230" fill="1" layer="-1.00" shape="2175.821006,4896.646066 2173.375996,4899.157174 2181.419289,4906.930847 2183.864298,4904.419744 2175.821006,4896.646066"/>
    <poly id="121119753" type="leisure.slipway" color="207,245,201" fill="0" layer="-2.00" shape="2195.800119,5156.992220 2203.279358,5162.560505"/>
    <poly id="121119755" type="building.yes" color="255,230,230" fill="1" layer="-1.00" shape="2322.907390,5315.911158 2310.309654,5312.088503 2306.064077,5325.994555 2311.201422,5327.555446 2311.492813,5326.608750 2318.946351,5328.870767 2322.907390,5315.911158"/>
    <poly id="121119757" type="building.yes" color="255,230,230" fill="1" layer="-1.00" shape="2155.402898,5073.842718 2161.635640,5071.385508 2159.863052,5066.899422 2153.629875,5069.345514 2155.402898,5073.842718"/>
    <poly id="121119758" type="building.yes" color="255,230,230" fill="1" layer="-1.00" shape="2224.855742,5158.763795 2219.478298,5159.127675 2219.991599,5166.569000 2225.369034,5166.205120 2224.855742,5158.763795"/>
    <poly id="121119759" type="building.yes" color="255,230,230" fill="1" layer="-1.00" shape="2200.478685,4994.747791 2196.059066,4996.912093 2199.975763,5004.889944 2205.669453,5002.097292 2204.008128,4998.720497 2202.740444,4999.337467 2200.478685,4994.747791"/>
    <poly id="121119760" type="leisure.slipway" color="207,245,201" fill="0" layer="-2.00" shape="2180.109793,4920.600932 2191.938274,4913.517440"/>
    <poly id="121119761" type="building.yes" color="255,230,230" fill="1" layer="-1.00" shape="2235.714011,5155.938471 2231.703202,5157.184917 2233.786437,5163.875090 2237.797672,5162.639765 2235.714011,5155.938471"/>
    <poly id="121119762" type="building.yes" color="255,230,230" fill="1" layer="-1.00" shape="2172.787304,5115.531870 2179.464874,5112.032952 2177.068389,5107.493043 2170.397638,5110.991701 2172.787304,5115.531870"/>
    <poly id="121119763" type="building.yes" color="255,230,230" fill="1" layer="-1.00" shape="2166.273695,5020.993449 2170.418272,5017.726149 2164.971736,5010.832022 2160.819903,5014.088471 2166.273695,5020.993449"/>
    <poly id="121119764" type="building.yes" color="255,230,230" fill="1" layer="-1.00" shape="2158.857759,5084.366298 2165.379587,5081.786547 2163.880173,5078.002602 2157.358341,5080.582354 2158.857759,5084.366298"/>
    <poly id="125065713" type="building.yes" color="255,230,230" fill="1" layer="-1.00" shape="3086.712930,6180.117267 3081.550909,6187.109030 3089.432713,6192.907995 3094.594309,6185.905121 3086.712930,6180.117267"/>
    <poly id="125065724" type="leisure.marina" color="207,245,201" fill="1" layer="-2.00" shape="4132.889318,7252.208147 4120.868963,7263.637552 4161.678558,7305.871358 4171.702928,7319.006277 4172.317435,7324.884745 4167.321634,7328.372341 4175.766319,7338.961989 4176.378517,7335.330518 4188.376637,7323.857552 4158.158281,7280.482816 4132.889318,7252.208147"/>
    <poly id="125065724#1" type="natural.water" color="181,209,209" fill="1" layer="-4.00" shape="4132.889318,7252.208147 4120.868963,7263.637552 4161.678558,7305.871358 4171.702928,7319.006277 4172.317435,7324.884745 4167.321634,7328.372341 4175.766319,7338.961989 4176.378517,7335.330518 4188.376637,7323.857552 4158.158281,7280.482816 4132.889318,7252.208147"/>
    <poly id="125065738" type="natural.water" color="181,209,209" fill="1" layer="-4.00" shape="2936.660778,6136.042638 2938.382218,6139.228003 2937.564637,6142.299645 2934.489055,6143.331341 2931.249002,6142.754657 2908.372097,6130.607349 2885.912717,6111.394946 2865.357958,6089.135882 2849.071514,6069.318133 2854.233077,6064.976508 2857.925313,6064.344156 2890.473648,6091.296782 2890.553937,6096.037629 2916.213505,6116.563242 2920.161875,6121.867691 2936.660778,6136.042638"/>
    <poly id="125065780" type="waterway.drain" color="181,209,209" fill="0" layer="-4.00" shape="3050.507546,6207.870684 3075.095792,6206.645184"/>
    <poly id="125065784" type="leisure.marina" color="207,245,201" fill="1" layer="-2.00" shape="3963.214863,7060.248300 3960.790655,7064.004968 3970.884233,7079.274973 4001.883261,7113.543047 3990.671045,7126.456259 3996.406163,7132.806538 4001.332574,7127.506286 4099.852155,7231.547539 4102.687558,7239.055820 4099.241574,7244.666723 4107.265424,7252.822506 4120.216387,7236.981013 4076.195847,7178.356056 4016.945670,7114.112578 4012.697836,7108.429090 3994.225943,7085.384449 3971.034988,7063.612136 3963.214863,7060.248300"/>
    <poly id="125065784#1" type="natural.water" color="181,209,209" fill="1" layer="-4.00" shape="3963.214863,7060.248300 3960.790655,7064.004968 3970.884233,7079.274973 4001.883261,7113.543047 3990.671045,7126.456259 3996.406163,7132.806538 4001.332574,7127.506286 4099.852155,7231.547539 4102.687558,7239.055820 4099.241574,7244.666723 4107.265424,7252.822506 4120.216387,7236.981013 4076.195847,7178.356056 4016.945670,7114.112578 4012.697836,7108.429090 3994.225943,7085.384449 3971.034988,7063.612136 3963.214863,7060.248300"/>
    <poly id="125623942" type="natural.wood" color="140,196,107" fill="1" layer="-4.00" shape="4429.671039,7683.428444 4435.062961,7680.660909 4386.775389,7577.263739 4408.335646,7556.706026 4394.480984,7529.830865 4410.266014,7508.625574 4398.325763,7502.868648 4385.304117,7510.081839 4368.227599,7539.833290 4373.295055,7547.679435 4369.441695,7564.775656 4429.671039,7683.428444"/>
    <poly id="125626831" type="waterway.drain" color="181,209,209" fill="0" layer="-4.00" shape="2799.172068,6254.808785 2835.801411,6414.701381 2836.697183,6418.620124"/>
    <poly id="128002757" type="natural.wood" color="140,196,107" fill="1" layer="-4.00" shape="7159.123314,1566.206684 7157.574826,1564.305141 7140.661224,1543.483898 7201.683809,1488.506391 7221.748606,1442.597807 7254.171658,1401.647397 7438.318989,1310.052005 7463.906878,1399.609374 7359.572084,1434.263691 7232.089114,1516.626152 7159.123314,1566.206684"/>
    <poly id="128003240" type="natural.wood" color="140,196,107" fill="1" layer="-4.00" shape="8193.867619,889.261842 8205.579801,910.592904 8513.653108,729.466075 8505.616145,710.747452 8193.867619,889.261842"/>
    <poly id="128003241" type="natural.water" color="181,209,209" fill="1" layer="-4.00" shape="7204.439315,668.298043 7213.150426,681.165735 7202.485745,679.996780 7193.007661,688.738177 7199.444170,695.678342 7210.257279,699.703478 7218.961330,694.020028 7227.308876,705.587449 7216.385009,717.345167 7204.325063,718.533699 7179.004692,698.997184 7188.623997,686.375358 7204.439315,668.298043"/>
    <poly id="129415872" type="natural.wood" color="140,196,107" fill="1" layer="-4.00" shape="2719.839338,884.402537 2729.425396,828.409366 2919.954003,844.971738 2924.309523,897.020334 2719.839338,884.402537"/>
    <poly id="129415874" type="natural.wood" color="140,196,107" fill="1" layer="-4.00" shape="2694.303676,1097.637027 2904.006888,1132.011831 2903.898821,1052.973374 2833.792342,1023.466966 2703.720008,1037.262724 2694.303676,1097.637027"/>
    <poly id="129415875" type="natural.wood" color="140,196,107" fill="1" layer="-4.00" shape="2504.887238,1132.756343 2538.384015,1152.266513 2542.861558,1154.877842 2570.104272,664.814821 2554.979135,614.528938 2502.276289,610.168952 2504.430938,702.402849 2528.559289,719.044973 2504.887238,1132.756343"/>
    <poly id="129415877" type="natural.wood" color="140,196,107" fill="1" layer="-4.00" shape="2717.406755,1009.797640 2844.279477,990.858181 2918.951919,986.525235 2938.684467,927.213398 2720.900756,911.956461 2717.406755,1009.797640"/>
    <poly id="129415878" type="natural.wood" color="140,196,107" fill="1" layer="-4.00" shape="3212.129592,855.095886 3203.112600,853.593790 3194.121765,855.264423 3186.250175,859.898745 3180.441079,866.948254 3177.844188,873.406622 3177.167662,882.497208 3179.652536,891.276996 3184.997846,898.677376 3193.075083,904.024008 3201.983174,906.075922 3211.057167,904.970031 3219.200600,900.826414 3224.611969,895.351251 3228.647209,887.167272 3229.625586,878.098510 3227.445541,869.240176 3222.353365,861.662990 3212.129592,855.095886"/>
    <poly id="129716783" type="building.house" color="255,230,230" fill="1" layer="-1.00" shape="4575.662137,593.255065 4593.795936,595.659135 4592.476725,605.542234 4591.320885,614.149638 4588.206832,613.733898 4582.102926,612.931092 4582.858092,607.267645 4573.949136,606.081870 4575.662137,593.255065"/>
    <poly id="129774853" type="amenity.parking" color="184,184,179" fill="1" layer="-1.00" shape="5986.492928,889.931827 6006.486615,901.602061 6013.572938,888.271888 6005.535713,883.709951 6000.998596,892.300135 5989.730479,885.310518 5986.492928,889.931827"/>
    <poly id="129774858" type="amenity.parking" color="184,184,179" fill="1" layer="-1.00" shape="6005.056652,951.621059 6015.761899,938.688380 6012.452383,938.156674 6005.000285,947.603287 6005.056652,951.621059"/>
    <poly id="129840121" type="leisure.swimming_pool" color="207,245,201" fill="1" layer="-2.00" shape="6432.658005,613.871665 6437.362697,612.045940 6442.995008,625.184579 6438.133653,627.751153 6432.658005,613.871665"/>
    <poly id="129915097" type="amenity.parking" color="184,184,179" fill="1" layer="-1.00" shape="6009.276831,958.866379 6014.367396,957.671472 6021.216541,949.639632 6021.367256,943.865753 6009.276831,958.866379"/>
    <poly id="129915098" type="building.telephone_exchange" color="255,230,230" fill="1" layer="-1.00" shape="6178.030939,1154.065675 6189.887987,1167.970780 6184.726282,1172.341814 6185.742198,1173.528287 6182.731635,1176.014013 6173.420541,1184.038546 6163.338560,1172.226608 6165.577618,1170.315691 6162.772537,1167.025491 6178.030939,1154.065675"/>
    <poly id="129916158" type="amenity.parking" color="184,184,179" fill="1" layer="-1.00" shape="6204.402306,1110.564208 6254.740590,1071.523960 6275.005712,1097.104233 6279.071229,1094.122133 6257.325370,1063.742777 6201.368613,1107.015381 6204.402306,1110.564208"/>
    <poly id="129916159" type="amenity.parking" color="184,184,179" fill="1" layer="-1.00" shape="6245.596673,1086.690970 6248.220205,1090.244196 6255.596611,1084.397570 6253.092329,1081.285250 6245.596673,1086.690970"/>
    <poly id="129916160" type="amenity.dentist" color="237,199,199" fill="1" layer="-1.00" shape="6246.839471,1096.409762 6248.733045,1098.743419 6253.250281,1095.410153 6256.306224,1099.548347 6251.995212,1102.729052 6256.486029,1108.282871 6267.277533,1100.157999 6258.197128,1087.884859 6246.839471,1096.409762"/>
    <poly id="129916160#1" type="building.yes" color="255,230,230" fill="1" layer="-1.00" shape="6246.839471,1096.409762 6248.733045,1098.743419 6253.250281,1095.410153 6256.306224,1099.548347 6251.995212,1102.729052 6256.486029,1108.282871 6267.277533,1100.157999 6258.197128,1087.884859 6246.839471,1096.409762"/>
    <poly id="129916163" type="amenity.doctors" color="237,199,199" fill="1" layer="-1.00" shape="6226.715016,1120.666529 6225.440929,1121.694630 6221.316427,1116.605809 6222.046548,1116.021425 6221.193155,1114.973560 6236.806338,1102.345726 6237.881929,1103.663579 6246.839471,1096.409762 6248.733045,1098.743419 6251.995212,1102.729052 6256.486029,1108.282871 6241.275489,1120.527945 6243.363101,1123.110378 6235.917542,1129.115538 6233.794524,1126.501041 6232.374413,1127.646015 6226.715016,1120.666529"/>
    <poly id="129916163#1" type="building.yes" color="255,230,230" fill="1" layer="-1.00" shape="6226.715016,1120.666529 6225.440929,1121.694630 6221.316427,1116.605809 6222.046548,1116.021425 6221.193155,1114.973560 6236.806338,1102.345726 6237.881929,1103.663579 6246.839471,1096.409762 6248.733045,1098.743419 6251.995212,1102.729052 6256.486029,1108.282871 6241.275489,1120.527945 6243.363101,1123.110378 6235.917542,1129.115538 6233.794524,1126.501041 6232.374413,1127.646015 6226.715016,1120.666529"/>
    <poly id="129916166" type="amenity.parking" color="184,184,179" fill="1" layer="-1.00" shape="6215.113036,1110.070053 6218.119083,1113.430631 6225.221973,1108.128801 6222.372667,1104.572989 6215.113036,1110.070053"/>
    <poly id="129916167" type="amenity.parking" color="184,184,179" fill="1" layer="-1.00" shape="6233.387892,1096.216871 6236.304740,1099.569697 6245.803954,1092.172906 6243.046791,1088.702682 6233.387892,1096.216871"/>
    <poly id="129916534" type="amenity.parking" color="184,184,179" fill="1" layer="-1.00" shape="6292.684137,714.134250 6292.180478,719.264448 6294.573217,724.307441 6309.400344,742.955649 6311.743152,742.878239 6334.018976,724.642864 6330.541803,720.943680 6331.415308,719.808264 6315.440383,699.922797 6292.684137,714.134250"/>
    <poly id="130333114" type="amenity.parking" color="184,184,179" fill="1" layer="-1.00" shape="4523.335172,701.541191 4555.741422,675.784111 4545.070439,668.206927 4539.576078,674.775005 4513.963328,653.447484 4502.241605,667.446864 4498.406437,664.263645 4490.880889,672.624184 4523.335172,701.541191"/>
    <poly id="130333116" type="building.yes" color="255,230,230" fill="1" layer="-1.00" shape="4576.429555,642.601308 4582.318133,647.621597 4590.077512,638.573016 4584.188933,633.552718 4576.429555,642.601308"/>
    <poly id="130333117" type="building.yes" color="255,230,230" fill="1" layer="-1.00" shape="4556.514359,623.973792 4566.943073,632.907662 4581.183912,616.629777 4582.102926,612.931092 4588.206832,613.733898 4586.950195,619.160350 4567.448125,641.306956 4552.461000,628.337699 4556.514359,623.973792"/>
    <poly id="130333123" type="building.yes" color="255,230,230" fill="1" layer="-1.00" shape="4520.881442,706.779493 4526.434535,700.676847 4537.512959,710.688291 4531.960290,716.802044 4520.881442,706.779493"/>
    <poly id="130333126" type="building.yes" color="255,230,230" fill="1" layer="-1.00" shape="4538.680763,703.294197 4545.260596,709.045293 4560.145364,692.085757 4553.565529,686.334642 4538.680763,703.294197"/>
    <poly id="130333128" type="building.yes" color="255,230,230" fill="1" layer="-1.00" shape="4502.241605,667.446864 4498.406437,664.263645 4497.184237,663.241259 4516.905630,639.682889 4529.436594,650.117734 4545.082953,631.425350 4551.723099,636.962580 4535.847891,655.930931 4547.340511,665.503443 4545.070439,668.206927 4539.576078,674.775005 4513.963328,653.447484 4502.241605,667.446864"/>
    <poly id="130333129" type="building.yes" color="255,230,230" fill="1" layer="-1.00" shape="4496.285629,684.678311 4508.200287,694.735734 4511.184165,691.203226 4499.276334,681.145535 4496.285629,684.678311"/>
    <poly id="130333130" type="building.yes" color="255,230,230" fill="1" layer="-1.00" shape="4594.818826,629.472520 4599.808526,624.015052 4605.362885,629.059251 4600.366779,634.528093 4594.818826,629.472520"/>