<?xml version="1.0" encoding="UTF-8"?>

<!-- generated on 2022-04-21 17:08:33 by Eclipse SUMO duarouter Version 1.10.0
<configuration xmlns:xsi="http://www.w3.org/2001/XMLSchema-instance" xsi:noNamespaceSchemaLocation="http://sumo.dlr.de/xsd/duarouterConfiguration.xsd">

    <input>
        <net-file value="C:\Users\William\src\sumo-1.10.0\tools\2022-04-21-17-08-15\osm.net.xml"/>
        <route-files value="C:\Users\William\src\sumo-1.10.0\tools\2022-04-21-17-08-15\osm.passenger.trips.xml"/>
    </input>

    <output>
        <output-file value="C:\Users\William\src\sumo-1.10.0\tools\2022-04-21-17-08-15\osm.passenger.trips.xml.tmp"/>
        <write-trips value="true"/>
    </output>

    <time>
        <begin value="0"/>
        <end value="3600"/>
    </time>

    <report>
        <no-warnings value="true"/>
        <ignore-errors value="true"/>
        <no-step-log value="true"/>
    </report>

</configuration>
-->

<routes xmlns:xsi="http://www.w3.org/2001/XMLSchema-instance" xsi:noNamespaceSchemaLocation="http://sumo.dlr.de/xsd/routes_file.xsd">
    <vType id="veh_passenger" vClass="passenger"/>
    <trip id="veh0" type="veh_passenger" depart="0.00" departLane="best" from="234095904#3" to="-190062678#1"/>
    <trip id="veh1" type="veh_passenger" depart="1.77" departLane="best" from="-4291162#0" to="-4312357#1"/>
    <trip id="veh5" type="veh_passenger" depart="8.86" departLane="best" from="-4291096#1" to="3997418#4"/>
    <trip id="veh6" type="veh_passenger" depart="10.63" departLane="best" departSpeed="max" from="-170318119" to="-4310713#10"/>
    <trip id="veh7" type="veh_passenger" depart="12.40" departLane="best" from="24270878#1" to="4291027#0"/>
    <trip id="veh8" type="veh_passenger" depart="14.17" departLane="best" from="-4291096#13" to="4291065#4"/>
    <trip id="veh9" type="veh_passenger" depart="15.94" departLane="best" from="4310713#9" to="-110861159#8"/>
    <trip id="veh10" type="veh_passenger" depart="17.71" departLane="best" from="4310713#10" to="4310713#3"/>
    <trip id="veh12" type="veh_passenger" depart="21.25" departLane="best" departSpeed="max" from="693815756" to="-570098976#3"/>
    <trip id="veh18" type="veh_passenger" depart="31.88" departLane="best" from="4312356#1" to="4291095#3"/>
    <trip id="veh20" type="veh_passenger" depart="35.42" departLane="best" from="4218015#0" to="-24270875"/>
    <trip id="veh23" type="veh_passenger" depart="40.74" departLane="best" departSpeed="max" from="-38364262#2" to="-4408949#7"/>
    <trip id="veh24" type="veh_passenger" depart="42.51" departLane="best" departSpeed="max" from="220585007#0" to="-737470637"/>
    <trip id="veh27" type="veh_passenger" depart="47.82" departLane="best" departSpeed="max" from="24270875" to="4291088#1"/>
    <trip id="veh30" type="veh_passenger" depart="53.14" departLane="best" from="96758418#1" to="4291103#1"/>
    <trip id="veh31" type="veh_passenger" depart="54.91" departLane="best" departSpeed="max" from="-68830411" to="4310706"/>
    <trip id="veh32" type="veh_passenger" depart="56.68" departLane="best" from="4408869#6" to="4408917#4"/>
    <trip id="veh36" type="veh_passenger" depart="63.76" departLane="best" from="4408937#12" to="-4409028#4"/>
    <trip id="veh37" type="veh_passenger" depart="65.54" departLane="best" from="24270879#9" to="105854732#1"/>
    <trip id="veh38" type="veh_passenger" depart="67.31" departLane="best" from="4409021#2" to="239056024#8"/>
    <trip id="veh41" type="veh_passenger" depart="72.62" departLane="best" from="-4408948#2" to="-4311204#1"/>
    <trip id="veh43" type="veh_passenger" depart="76.16" departLane="best" departSpeed="max" from="-28182856" to="-24270875"/>
    <trip id="veh44" type="veh_passenger" depart="77.93" departLane="best" from="4291149#0" to="170318127"/>
    <trip id="veh46" type="veh_passenger" depart="81.48" departLane="best" from="97655980#0" to="4218017#5"/>
    <trip id="veh48" type="veh_passenger" depart="85.02" departLane="best" departSpeed="max" from="-11981818" to="4312795#2"/>
    <trip id="veh49" type="veh_passenger" depart="86.79" departLane="best" departSpeed="max" from="3997418#0" to="4291018"/>
    <trip id="veh50" type="veh_passenger" depart="88.56" departLane="best" from="-4291126#2" to="4291104"/>
    <trip id="veh52" type="veh_passenger" depart="92.10" departLane="best" departSpeed="max" from="-4409021#11" to="678027613#0"/>
    <trip id="veh53" type="veh_passenger" depart="93.88" departLane="best" from="4408937#11" to="-4408929#1"/>
    <trip id="veh55" type="veh_passenger" depart="97.42" departLane="best" from="4409021#0" to="4409054"/>
    <trip id="veh56" type="veh_passenger" depart="99.19" departLane="best" from="-4310713#6" to="4291102"/>
    <trip id="veh57" type="veh_passenger" depart="100.96" departLane="best" departSpeed="max" from="169830028#0" to="-4291088#1"/>
    <trip id="veh58" type="veh_passenger" depart="102.73" departLane="best" from="4291095#4" to="4291021#1"/>
    <trip id="veh59" type="veh_passenger" depart="104.50" departLane="best" from="4291109#0" to="4218017#8"/>
    <trip id="veh62" type="veh_passenger" depart="109.82" departLane="best" from="4408937#7" to="4408987#1"/>
    <trip id="veh63" type="veh_passenger" depart="111.59" departLane="best" from="-4310731#5" to="-25802001#1"/>
    <trip id="veh66" type="veh_passenger" depart="116.90" departLane="best" from="4291096#2" to="-4291042#4"/>
    <trip id="veh67" type="veh_passenger" depart="118.67" departLane="best" from="-492118507#0" to="4291033#1"/>
    <trip id="veh70" type="veh_passenger" depart="123.99" departLane="best" departSpeed="max" from="-617278621#1" to="4408861#2"/>
    <trip id="veh72" type="veh_passenger" depart="127.53" departLane="best" from="97655978#2" to="4291107#5"/>
    <trip id="veh74" type="veh_passenger" depart="131.07" departLane="best" from="-4216657#0" to="-4312795#2"/>
    <trip id="veh76" type="veh_passenger" depart="134.61" departLane="best" departSpeed="max" from="-4291099#1" to="-4312317"/>
    <trip id="veh77" type="veh_passenger" depart="136.39" departLane="best" from="-24270878#3" to="4291099#1"/>
    <trip id="veh79" type="veh_passenger" depart="139.93" departLane="best" from="4408892#15" to="-38115899"/>
    <trip id="veh80" type="veh_passenger" depart="141.70" departLane="best" departSpeed="max" from="-4291102" to="4291129#2"/>
    <trip id="veh81" type="veh_passenger" depart="143.47" departLane="best" departSpeed="max" from="-4291094#1" to="-4291044#0"/>
    <trip id="veh84" type="veh_passenger" depart="148.78" departLane="best" from="4310713#5" to="-4291161#1"/>
    <trip id="veh87" type="veh_passenger" depart="154.10" departLane="best" from="4291038#3" to="4291159#3"/>
    <trip id="veh88" type="veh_passenger" depart="155.87" departLane="best" departSpeed="max" from="891028413#0" to="-4218015#0"/>
    <trip id="veh89" type="veh_passenger" depart="157.64" departLane="best" from="-4408949#5" to="-570098977#0"/>
    <trip id="veh90" type="veh_passenger" depart="159.41" departLane="best" from="4408892#8" to="-4408891#2"/>
    <trip id="veh92" type="veh_passenger" depart="162.95" departLane="best" from="-4408973" to="-4408951#0"/>
    <trip id="veh94" type="veh_passenger" depart="166.50" departLane="best" from="-4409016#0" to="4409028#6"/>
    <trip id="veh99" type="veh_passenger" depart="175.35" departLane="best" departSpeed="max" from="-550631392#1" to="-4311188#0"/>
    <trip id="veh104" type="veh_passenger" depart="184.21" departLane="best" departSpeed="max" from="693815756" to="97007048#1"/>
    <trip id="veh107" type="veh_passenger" depart="189.52" departLane="best" from="72757505#2" to="4291060#1"/>
    <trip id="veh108" type="veh_passenger" depart="191.29" departLane="best" from="-617278659#0" to="4408872#2"/>
    <trip id="veh109" type="veh_passenger" depart="193.06" departLane="best" from="-23398794#0" to="4291063"/>
    <trip id="veh110" type="veh_passenger" depart="194.84" departLane="best" departSpeed="max" from="-570098977#3" to="4409021#1"/>
    <trip id="veh112" type="veh_passenger" depart="198.38" departLane="best" from="-25802001#2" to="-4291149#0"/>
    <trip id="veh113" type="veh_passenger" depart="200.15" departLane="best" from="-97655978#4" to="4291161#2"/>
    <trip id="veh114" type="veh_passenger" depart="201.92" departLane="best" departSpeed="max" from="-4291101" to="-4291032#0"/>
    <trip id="veh115" type="veh_passenger" depart="203.69" departLane="best" from="4408953#1" to="-4408891#0"/>
    <trip id="veh116" type="veh_passenger" depart="205.46" departLane="best" from="-97655978#1" to="4291096#1"/>
    <trip id="veh118" type="veh_passenger" depart="209.01" departLane="best" from="-4291086#3" to="4312312"/>
    <trip id="veh119" type="veh_passenger" depart="210.78" departLane="best" departSpeed="max" from="38115899" to="-4409016#3"/>
    <trip id="veh122" type="veh_passenger" depart="216.09" departLane="best" departSpeed="max" from="98329150" to="97655978#0"/>
    <trip id="veh128" type="veh_passenger" depart="226.72" departLane="best" departSpeed="max" from="169970762" to="891028413#1"/>
    <trip id="veh132" type="veh_passenger" depart="233.80" departLane="best" from="-4291014#2" to="-4291024#4"/>
    <trip id="veh133" type="veh_passenger" depart="235.57" departLane="best" from="-3997418#15" to="4291034"/>
    <trip id="veh134" type="veh_passenger" depart="237.35" departLane="best" from="-4291159#3" to="4291086#4"/>
    <trip id="veh135" type="veh_passenger" depart="239.12" departLane="best" from="4291014#2" to="-4310715#2"/>
    <trip id="veh136" type="veh_passenger" depart="240.89" departLane="best" departSpeed="max" from="219467855" to="-4408929#2"/>
    <trip id="veh137" type="veh_passenger" depart="242.66" departLane="best" from="-55824678#0" to="570098978#1"/>
    <trip id="veh139" type="veh_passenger" depart="246.20" departLane="best" departSpeed="max" from="-4408978" to="-4408949#4"/>
    <trip id="veh142" type="veh_passenger" depart="251.52" departLane="best" from="4291047#1" to="4291034"/>
    <trip id="veh143" type="veh_passenger" depart="253.29" departLane="best" departSpeed="max" from="-4408980" to="-133497080#0"/>
    <trip id="veh144" type="veh_passenger" depart="255.06" departLane="best" from="-24270879#7" to="495530031#1"/>
    <trip id="veh147" type="veh_passenger" depart="260.37" departLane="best" from="-4291033#0" to="-4291042#2"/>
    <trip id="veh151" type="veh_passenger" depart="267.46" departLane="best" departSpeed="max" from="-4291107#5" to="-4218016#0"/>
    <trip id="veh152" type="veh_passenger" depart="269.23" departLane="best" from="4291110#0" to="495530031#1"/>
    <trip id="veh155" type="veh_passenger" depart="274.54" departLane="best" from="4408902#3" to="751402476#1"/>
    <trip id="veh156" type="veh_passenger" depart="276.31" departLane="best" from="4310715#2" to="495530029"/>
    <trip id="veh158" type="veh_passenger" depart="279.86" departLane="best" departSpeed="max" from="-4408864#2" to="617278560#5"/>
    <trip id="veh161" type="veh_passenger" depart="285.17" departLane="best" from="4291125#3" to="-4218018#1"/>
    <trip id="veh162" type="veh_passenger" depart="286.94" departLane="best" from="4408936#0" to="4409021#9"/>
    <trip id="veh164" type="veh_passenger" depart="290.48" departLane="best" from="-4409028#6" to="-4409019"/>
    <trip id="veh166" type="veh_passenger" depart="294.03" departLane="best" departSpeed="max" from="-169830028#1" to="-4310702#2"/>
    <trip id="veh167" type="veh_passenger" depart="295.80" departLane="best" from="714139148" to="-4408951#1"/>
    <trip id="veh170" type="veh_passenger" depart="301.11" departLane="best" from="72757505#6" to="-4291125#0"/>
    <trip id="veh172" type="veh_passenger" depart="304.65" departLane="best" from="-3997418#2" to="179243206#1"/>
    <trip id="veh176" type="veh_passenger" depart="311.74" departLane="best" from="-4291115#0" to="4310731#6"/>
    <trip id="veh179" type="veh_passenger" depart="317.05" departLane="best" from="4291048#2" to="4291149#0"/>
    <trip id="veh182" type="veh_passenger" depart="322.36" departLane="best" from="-4311188#6" to="4409016#6"/>
    <trip id="veh184" type="veh_passenger" depart="325.91" departLane="best" from="-4310731#9" to="169457322#1"/>
    <trip id="veh185" type="veh_passenger" depart="327.68" departLane="best" from="-4408949#5" to="-4409013"/>
    <trip id="veh186" type="veh_passenger" depart="329.45" departLane="best" from="-4218017#1" to="170318126"/>
    <trip id="veh189" type="veh_passenger" depart="334.76" departLane="best" from="-4310715#2" to="4291032#1"/>
    <trip id="veh192" type="veh_passenger" depart="340.08" departLane="best" from="24270879#7" to="24270877"/>
    <trip id="veh193" type="veh_passenger" depart="341.85" departLane="best" departSpeed="max" from="-4409015" to="-4311188#0"/>
    <trip id="veh195" type="veh_passenger" depart="345.39" departLane="best" from="4291161#0" to="-4291106#1"/>
    <trip id="veh196" type="veh_passenger" depart="347.16" departLane="best" from="-25979295#2" to="4216628#8"/>
    <trip id="veh197" type="veh_passenger" depart="348.93" departLane="best" departSpeed="max" from="219467855" to="-570098974#5"/>
    <trip id="veh200" type="veh_passenger" depart="354.25" departLane="best" departSpeed="max" from="-4291082" to="-190053777#2"/>
    <trip id="veh201" type="veh_passenger" depart="356.02" departLane="best" from="-4291106#1" to="25802001#2"/>
    <trip id="veh203" type="veh_passenger" depart="359.56" departLane="best" from="-4291072#3" to="4310713#0"/>
    <trip id="veh204" type="veh_passenger" depart="361.33" departLane="best" departSpeed="max" from="-570098971" to="-4408889#1"/>
    <trip id="veh207" type="veh_passenger" depart="366.65" departLane="best" from="-3997418#14" to="170439113#2"/>
    <trip id="veh208" type="veh_passenger" depart="368.42" departLane="best" from="-4291054" to="68830411"/>
    <trip id="veh211" type="veh_passenger" depart="373.73" departLane="best" from="-4409021#6" to="4408949#1"/>
    <trip id="veh215" type="veh_passenger" depart="380.82" departLane="best" from="4291019#2" to="3997418#20"/>
    <trip id="veh216" type="veh_passenger" depart="382.59" departLane="best" from="4312359" to="4291032#1"/>
    <trip id="veh217" type="veh_passenger" depart="384.36" departLane="best" from="4408976#2" to="4408869#7"/>
    <trip id="veh219" type="veh_passenger" depart="387.90" departLane="best" from="-4291107#4" to="4291102"/>
    <trip id="veh220" type="veh_passenger" depart="389.67" departLane="best" from="4291096#2" to="4216631#3"/>
    <trip id="veh223" type="veh_passenger" depart="394.99" departLane="best" from="-4291159#1" to="-492118507#1"/>
    <trip id="veh225" type="veh_passenger" depart="398.53" departLane="best" from="-4291100#1" to="4310710#1"/>
    <trip id="veh226" type="veh_passenger" depart="400.30" departLane="best" from="4218015#4" to="-25935155#4"/>
    <trip id="veh229" type="veh_passenger" depart="405.61" departLane="best" departSpeed="max" from="-4408968" to="570098978#1"/>
    <trip id="veh230" type="veh_passenger" depart="407.38" departLane="best" from="-891028394" to="4310712"/>
    <trip id="veh231" type="veh_passenger" depart="409.16" departLane="best" from="4408892#0" to="4408894#1"/>
    <trip id="veh233" type="veh_passenger" depart="412.70" departLane="best" departSpeed="max" from="-4408885" to="4408888#0"/>
    <trip id="veh235" type="veh_passenger" depart="416.24" departLane="best" departSpeed="max" from="-4408968" to="4408872#1"/>
    <trip id="veh237" type="veh_passenger" depart="419.78" departLane="best" from="-4291096#13" to="-4312314"/>
    <trip id="veh244" type="veh_passenger" depart="432.18" departLane="best" departSpeed="max" from="-170318119" to="4291105"/>
    <trip id="veh245" type="veh_passenger" depart="433.95" departLane="best" departSpeed="max" from="-4291018" to="24265418#5"/>
    <trip id="veh250" type="veh_passenger" depart="442.81" departLane="best" departSpeed="max" from="-169457323" to="4291024#1"/>
    <trip id="veh255" type="veh_passenger" depart="451.67" departLane="best" departSpeed="max" from="-169457323" to="-4291088#0"/>
    <trip id="veh256" type="veh_passenger" depart="453.44" departLane="best" from="-4218016#2" to="4291148#1"/>
    <trip id="veh259" type="veh_passenger" depart="458.75" departLane="best" from="-4291047#0" to="4291087#2"/>
    <trip id="veh260" type="veh_passenger" depart="460.52" departLane="best" from="4291062#2" to="-4291024#2"/>
    <trip id="veh262" type="veh_passenger" depart="464.06" departLane="best" from="-3997418#17" to="-190062678#2"/>
    <trip id="veh264" type="veh_passenger" depart="467.61" departLane="best" departSpeed="max" from="693815758" to="108139927"/>
    <trip id="veh265" type="veh_passenger" depart="469.38" departLane="best" from="4291011#1" to="-3997317#0"/>
    <trip id="veh269" type="veh_passenger" depart="476.46" departLane="best" from="-4216657#0" to="891028363"/>
    <trip id="veh271" type="veh_passenger" depart="480.01" departLane="best" departSpeed="max" from="-570098982" to="-585452394#0"/>
    <trip id="veh272" type="veh_passenger" depart="481.78" departLane="best" from="4408888#2" to="4408971"/>
    <trip id="veh276" type="veh_passenger" depart="488.86" departLane="best" from="4291042#1" to="70279407#4"/>
    <trip id="veh279" type="veh_passenger" depart="494.17" departLane="best" departSpeed="max" from="-4408996" to="4408861#2"/>
    <trip id="veh281" type="veh_passenger" depart="497.72" departLane="best" from="4312359" to="-3997418#4"/>
    <trip id="veh282" type="veh_passenger" depart="499.49" departLane="best" from="4408949#1" to="-4408889#0"/>
    <trip id="veh291" type="veh_passenger" depart="515.43" departLane="best" from="-55824678#0" to="4408891#3"/>
    <trip id="veh299" type="veh_passenger" depart="529.60" departLane="best" from="-4291110#1" to="-4291032#2"/>
    <trip id="veh300" type="veh_passenger" depart="531.37" departLane="best" departSpeed="max" from="-4291067" to="-4291032#0"/>
    <trip id="veh302" type="veh_passenger" depart="534.91" departLane="best" from="-550631076#3" to="4408854#1"/>
    <trip id="veh304" type="veh_passenger" depart="538.46" departLane="best" departSpeed="max" from="-4310706" to="-4218015#5"/>
    <trip id="veh306" type="veh_passenger" depart="542.00" departLane="best" departSpeed="max" from="-4291060#3" to="-169830028#0"/>
    <trip id="veh307" type="veh_passenger" depart="543.77" departLane="best" departSpeed="max" from="-617278561#1" to="-4408949#0"/>
    <trip id="veh309" type="veh_passenger" depart="547.31" departLane="best" from="4216628#6" to="-4291040#1"/>
    <trip id="veh313" type="veh_passenger" depart="554.40" departLane="best" from="-4291064" to="-24270879#2"/>
    <trip id="veh316" type="veh_passenger" depart="559.71" departLane="best" from="-24270879#5" to="4291099#1"/>
    <trip id="veh319" type="veh_passenger" depart="565.02" departLane="best" from="97655978#0" to="-4291028#1"/>
    <trip id="veh320" type="veh_passenger" depart="566.80" departLane="best" from="4291096#12" to="4291087#1"/>
    <trip id="veh322" type="veh_passenger" depart="570.34" departLane="best" departSpeed="max" from="-617278511#1" to="219467858"/>
    <trip id="veh323" type="veh_passenger" depart="572.11" departLane="best" departSpeed="max" from="-4409015" to="4409028#3"/>
    <trip id="veh325" type="veh_passenger" depart="575.65" departLane="best" from="179243206#1" to="4291088#2"/>
    <trip id="veh327" type="veh_passenger" depart="579.19" departLane="best" departSpeed="max" from="-4291087#2" to="-4310731#6"/>
    <trip id="veh328" type="veh_passenger" depart="580.97" departLane="best" from="25901339" to="-4291096#10"/>
    <trip id="veh332" type="veh_passenger" depart="588.05" departLane="best" from="-4291100#1" to="4310731#2"/>
    <trip id="veh333" type="veh_passenger" depart="589.82" departLane="best" from="4216657#1" to="234095904#1"/>
    <trip id="veh335" type="veh_passenger" depart="593.36" departLane="best" from="4291125#4" to="4291096#8"/>
    <trip id="veh341" type="veh_passenger" depart="603.99" departLane="best" from="4291065#0" to="4291047#2"/>
    <trip id="veh342" type="veh_passenger" depart="605.76" departLane="best" departSpeed="max" from="-4310709" to="-4291039#2"/>
    <trip id="veh343" type="veh_passenger" depart="607.53" departLane="best" from="3997418#7" to="4310713#7"/>
    <trip id="veh346" type="veh_passenger" depart="612.85" departLane="best" departSpeed="max" from="-170745401#1" to="172616469#0"/>
    <trip id="veh347" type="veh_passenger" depart="614.62" departLane="best" departSpeed="max" from="-4408852#1" to="-4408892#1"/>
    <trip id="veh351" type="veh_passenger" depart="621.70" departLane="best" departSpeed="max" from="38115899" to="-4408937#12"/>
    <trip id="veh355" type="veh_passenger" depart="628.79" departLane="best" departSpeed="max" from="-891028413#1" to="4291100#3"/>
    <trip id="veh357" type="veh_passenger" depart="632.33" departLane="best" from="-4408872#4" to="-570098974#0"/>
    <trip id="veh361" type="veh_passenger" depart="639.42" departLane="best" from="4310728#0" to="4291033#1"/>
    <trip id="veh362" type="veh_passenger" depart="641.19" departLane="best" from="-4409021#2" to="-4409028#4"/>
    <trip id="veh367" type="veh_passenger" depart="650.04" departLane="best" departSpeed="max" from="-4291065#4" to="-72757505#4"/>
    <trip id="veh368" type="veh_passenger" depart="651.81" departLane="best" from="4291086#1" to="4291096#9"/>
    <trip id="veh369" type="veh_passenger" depart="653.59" departLane="best" from="4291088#2" to="-4310715#1"/>
    <trip id="veh371" type="veh_passenger" depart="657.13" departLane="best" from="-4216657#1" to="737470635"/>
    <trip id="veh373" type="veh_passenger" depart="660.67" departLane="best" from="-665367004" to="-4216629#1"/>
    <trip id="veh374" type="veh_passenger" depart="662.44" departLane="best" departSpeed="max" from="97007046" to="585189642"/>
    <trip id="veh376" type="veh_passenger" depart="665.98" departLane="best" from="4312798" to="3997317#3"/>
    <trip id="veh379" type="veh_passenger" depart="671.30" departLane="best" departSpeed="max" from="803456044" to="-4408889#0"/>
    <trip id="veh380" type="veh_passenger" depart="673.07" departLane="best" departSpeed="max" from="-659710997#1" to="-97007046"/>
    <trip id="veh382" type="veh_passenger" depart="676.61" departLane="best" from="4408937#8" to="4409032"/>
    <trip id="veh384" type="veh_passenger" depart="680.15" departLane="best" from="-4408955#2" to="617278561#1"/>
    <trip id="veh385" type="veh_passenger" depart="681.93" departLane="best" departSpeed="max" from="-570098982" to="4408968"/>
    <trip id="veh391" type="veh_passenger" depart="692.55" departLane="best" departSpeed="max" from="-4291065#4" to="4310713#2"/>
    <trip id="veh393" type="veh_passenger" depart="696.10" departLane="best" from="4291106#0" to="-24265418#2"/>
    <trip id="veh394" type="veh_passenger" depart="697.87" departLane="best" from="4291055" to="4310728#0"/>
    <trip id="veh395" type="veh_passenger" depart="699.64" departLane="best" from="4310720#1" to="-97655978#0"/>
    <trip id="veh397" type="veh_passenger" depart="703.18" departLane="best" departSpeed="max" from="-170742873#1" to="3997418#14"/>
    <trip id="veh398" type="veh_passenger" depart="704.95" departLane="best" from="-916840849#8" to="4409054"/>
    <trip id="veh400" type="veh_passenger" depart="708.49" departLane="best" from="-617278556" to="239056024#2"/>
    <trip id="veh401" type="veh_passenger" depart="710.27" departLane="best" from="4291026#0" to="169457323"/>
    <trip id="veh402" type="veh_passenger" depart="712.04" departLane="best" from="24270879#7" to="-4291095#0"/>
    <trip id="veh403" type="veh_passenger" depart="713.81" departLane="best" departSpeed="max" from="-4409054" to="714139148"/>
    <trip id="veh406" type="veh_passenger" depart="719.12" departLane="best" from="4408889#5" to="4409028#1"/>
    <trip id="veh407" type="veh_passenger" depart="720.89" departLane="best" departSpeed="max" from="-4408925#1" to="-4409040#1"/>
    <trip id="veh410" type="veh_passenger" depart="726.21" departLane="best" departSpeed="max" from="-24265419#1" to="4291099#1"/>
    <trip id="veh412" type="veh_passenger" depart="729.75" departLane="best" from="4291060#1" to="179243206#0"/>
    <trip id="veh417" type="veh_passenger" depart="738.61" departLane="best" departSpeed="max" from="-4310712" to="-891028413#0"/>
    <trip id="veh418" type="veh_passenger" depart="740.38" departLane="best" from="-4291028#1" to="4218018#1"/>
    <trip id="veh420" type="veh_passenger" depart="743.92" departLane="best" departSpeed="max" from="-4291047#2" to="-3997351#0"/>
    <trip id="veh423" type="veh_passenger" depart="749.23" departLane="best" departSpeed="max" from="-4291025#1" to="24265418#4"/>
    <trip id="veh425" type="veh_passenger" depart="752.78" departLane="best" from="-110904191#1" to="4408949#7"/>
    <trip id="veh427" type="veh_passenger" depart="756.32" departLane="best" from="-4291039#1" to="190053777#1"/>
    <trip id="veh429" type="veh_passenger" depart="759.86" departLane="best" from="234095904#2" to="170439113#0"/>
    <trip id="veh433" type="veh_passenger" depart="766.95" departLane="best" departSpeed="max" from="-737470636" to="4291051"/>
    <trip id="veh434" type="veh_passenger" depart="768.72" departLane="best" from="97007048#0" to="-4409005#4"/>
    <trip id="veh436" type="veh_passenger" depart="772.26" departLane="best" from="-4291161#1" to="4291043#1"/>
    <trip id="veh438" type="veh_passenger" depart="775.80" departLane="best" from="-190062679" to="4291087#2"/>
    <trip id="veh440" type="veh_passenger" depart="779.34" departLane="best" departSpeed="max" from="220585007#0" to="4291096#13"/>
    <trip id="veh441" type="veh_passenger" depart="781.12" departLane="best" from="3997317#2" to="4312795#2"/>
    <trip id="veh446" type="veh_passenger" depart="789.97" departLane="best" from="4291040#0" to="-4216628#3"/>
    <trip id="veh448" type="veh_passenger" depart="793.51" departLane="best" from="-4291054" to="-4291043#2"/>
    <trip id="veh450" type="veh_passenger" depart="797.06" departLane="best" departSpeed="max" from="-617278560#8" to="585189642"/>
    <trip id="veh455" type="veh_passenger" depart="805.91" departLane="best" from="70279407#3" to="-4291062#0"/>
    <trip id="veh456" type="veh_passenger" depart="807.68" departLane="best" from="714139147" to="4409028#3"/>
    <trip id="veh459" type="veh_passenger" depart="813.00" departLane="best" departSpeed="max" from="-4408894#1" to="4408936#1"/>
    <trip id="veh463" type="veh_passenger" depart="820.08" departLane="best" from="4311188#5" to="617278621#1"/>
    <trip id="veh465" type="veh_passenger" depart="823.62" departLane="best" departSpeed="max" from="-170318119" to="495530031#1"/>
    <trip id="veh466" type="veh_passenger" depart="825.40" departLane="best" from="-4291096#15" to="-25935155#2"/>
    <trip id="veh467" type="veh_passenger" depart="827.17" departLane="best" departSpeed="max" from="4311204#0" to="584880555"/>
    <trip id="veh468" type="veh_passenger" depart="828.94" departLane="best" from="-4310720#2" to="169457322#1"/>
    <trip id="veh471" type="veh_passenger" depart="834.25" departLane="best" from="-38364260#2" to="550631392#1"/>
    <trip id="veh472" type="veh_passenger" depart="836.02" departLane="best" departSpeed="max" from="-4291018" to="23398794#2"/>
    <trip id="veh475" type="veh_passenger" depart="841.34" departLane="best" from="4291048#3" to="-4291095#0"/>
    <trip id="veh478" type="veh_passenger" depart="846.65" departLane="best" from="617278649" to="-219467855"/>
    <trip id="veh480" type="veh_passenger" depart="850.19" departLane="best" from="617278560#6" to="4409021#11"/>
    <trip id="veh484" type="veh_passenger" depart="857.28" departLane="best" departSpeed="max" from="-4291066" to="-4291038#2"/>
    <trip id="veh486" type="veh_passenger" depart="860.82" departLane="best" departSpeed="max" from="25935155#0" to="4291104"/>
    <trip id="veh488" type="veh_passenger" depart="864.36" departLane="best" from="-4218016#1" to="4291042#8"/>
    <trip id="veh491" type="veh_passenger" depart="869.68" departLane="best" from="4408927#2" to="-570098968#1"/>
    <trip id="veh494" type="veh_passenger" depart="874.99" departLane="best" from="-4291027#1" to="-4291042#7"/>
    <trip id="veh495" type="veh_passenger" depart="876.76" departLane="best" from="25929411#0" to="-190062678#2"/>
    <trip id="veh498" type="veh_passenger" depart="882.08" departLane="best" from="4291048#2" to="4218015#5"/>
    <trip id="veh499" type="veh_passenger" depart="883.85" departLane="best" from="4291059" to="25901339"/>
    <trip id="veh500" type="veh_passenger" depart="885.62" departLane="best" from="4291107#3" to="4216628#3"/>
    <trip id="veh501" type="veh_passenger" depart="887.39" departLane="best" from="-3997418#3" to="3997418#17"/>
    <trip id="veh504" type="veh_passenger" depart="892.70" departLane="best" departSpeed="max" from="-617278510#1" to="239056024#5"/>
    <trip id="veh505" type="veh_passenger" depart="894.47" departLane="best" from="70279414#0" to="-25935155#0"/>
    <trip id="veh506" type="veh_passenger" depart="896.25" departLane="best" departSpeed="max" from="-494837706" to="11981818"/>
    <trip id="veh507" type="veh_passenger" depart="898.02" departLane="best" from="3997418#17" to="3702255#1"/>
    <trip id="veh508" type="veh_passenger" depart="899.79" departLane="best" from="4409017#0" to="-38364260#2"/>
    <trip id="veh509" type="veh_passenger" depart="901.56" departLane="best" from="-25901339" to="4291087#2"/>
    <trip id="veh514" type="veh_passenger" depart="910.42" departLane="best" from="11981814#1" to="-4218015#2"/>
    <trip id="veh518" type="veh_passenger" depart="917.50" departLane="best" from="-4409021#1" to="-4408856#1"/>
    <trip id="veh524" type="veh_passenger" depart="928.13" departLane="best" from="4312795#2" to="-4216629#1"/>